<?xml version="1.0" encoding="UTF-8"?>

<!-- generated on 2024-03-21 11:39:30 by Eclipse SUMO netedit Version 1.17.0
-->

<routes xmlns:xsi="http://www.w3.org/2001/XMLSchema-instance" xsi:noNamespaceSchemaLocation="http://sumo.dlr.de/xsd/routes_file.xsd">
    <!-- Routes -->
    <route id="r_0" edges="A7B7 B7C7 C7D7 D7E7"/>
    <route id="r_1" edges="F7E7 E7D7 D7C7 C7B7"/>
    <route id="r_10" edges="H5H6 H6H7 H7H8"/>
    <route id="r_11" edges="H9H8 H8H7 H7H6"/>
    <route id="r_12" edges="A4B4 B4C4 C4D4 D4E4"/>
    <route id="r_13" edges="F4E4 E4D4 D4C4 C4B4"/>
    <route id="r_14" edges="C2C3 C3C4 C4C5"/>
    <route id="r_15" edges="C6C5 C5C4 C4C3"/>
    <route id="r_16" edges="D2D3 D3D4 D4D5"/>
    <route id="r_17" edges="D6D5 D5D4 D4D3"/>
    <route id="r_18" edges="E4F4 F4G4 G4H4 H4I4"/>
    <route id="r_19" edges="J4I4 I4H4 H4G4 G4F4"/>
    <route id="r_2" edges="C5C6 C6C7 C7C8"/>
    <route id="r_20" edges="G2G3 G3G4 G4G5"/>
    <route id="r_21" edges="G6G5 G5G4 G4G3"/>
    <route id="r_22" edges="H2H3 H3H4 H4H5"/>
    <route id="r_23" edges="H6H5 H5H4 H4H3"/>
    <route id="r_3" edges="C9C8 C8C7 C7C6"/>
    <route id="r_4" edges="D5D6 D6D7 D7D8"/>
    <route id="r_5" edges="D9D8 D8D7 D7D6"/>
    <route id="r_6" edges="E7F7 F7G7 G7H7 H7I7"/>
    <route id="r_7" edges="J7I7 I7H7 H7G7 G7F7"/>
    <route id="r_8" edges="G5G6 G6G7 G7G8"/>
    <route id="r_9" edges="G9G8 G8G7 G7G6"/>
	
   <flow id="f_0_0" begin="0.00" end="30.00" probability="0.3" route="r_0"/>
   <flow id="f_0_1" begin="0.00" end="30.00" probability="0.1" route="r_1"/>
   <flow id="f_0_2" begin="0.00" end="60.00" probability="0.1" route="r_2"/>
   <flow id="f_0_3" begin="0.00" end="60.00" probability="0.1" route="r_3"/>
   <flow id="f_0_4" begin="0.00" end="60.00" probability="0.2" route="r_4"/>
   <flow id="f_0_5" begin="0.00" end="60.00" probability="0.1" route="r_5"/>
   <flow id="f_0_6" begin="0.00" end="200.00" probability="0.18" route="r_6"/>
   <flow id="f_0_7" begin="0.00" end="200.00" probability="0.18" route="r_7"/>
   <flow id="f_0_8" begin="0.00" end="200.00" probability="0.18" route="r_8"/>
   <flow id="f_0_9" begin="0.00" end="200.00" probability="0.18" route="r_9"/>
   <flow id="f_0_10" begin="0.00" end="200.00" probability="0.18" route="r_10"/>
   <flow id="f_0_11" begin="0.00" end="200.00" probability="0.18" route="r_11"/>
   <flow id="f_0_12" begin="0.00" end="25.00" probability="0.34" route="r_12"/>
   <flow id="f_0_13" begin="0.00" end="25.00" probability="0.1" route="r_13"/>
   <flow id="f_0_14" begin="0.00" end="25.00" probability="0.33" route="r_14"/>
   <flow id="f_0_15" begin="0.00" end="25.00" probability="0.1" route="r_15"/>
   <flow id="f_0_16" begin="0.00" end="25.00" probability="0.32" route="r_16"/>
   <flow id="f_0_17" begin="0.00" end="25.00" probability="0.1" route="r_17"/>
   <flow id="f_1_12" begin="25.00" end="50.00" probability="0.1" route="r_12"/>
   <flow id="f_1_13" begin="25.00" end="50.00" probability="0.32" route="r_13"/>
   <flow id="f_1_14" begin="25.00" end="50.00" probability="0.1" route="r_14"/>
   <flow id="f_1_15" begin="25.00" end="50.00" probability="0.34" route="r_15"/>
   <flow id="f_1_16" begin="25.00" end="50.00" probability="0.1" route="r_16"/>
   <flow id="f_1_17" begin="25.00" end="50.00" probability="0.33" route="r_17"/>
   <flow id="f_1_0" begin="30.00" end="60.00" probability="0.1" route="r_0"/>
   <flow id="f_1_1" begin="30.00" end="60.00" probability="0.3" route="r_1"/>
   <flow id="f_2_12" begin="50.00" end="75.00" probability="0.33" route="r_12"/>
   <flow id="f_2_13" begin="50.00" end="75.00" probability="0.32" route="r_13"/>
   <flow id="f_2_14" begin="50.00" end="75.00" probability="0.34" route="r_14"/>
   <flow id="f_2_15" begin="50.00" end="75.00" probability="0.1" route="r_15"/>
   <flow id="f_2_16" begin="50.00" end="75.00" probability="0.1" route="r_16"/>
   <flow id="f_2_17" begin="50.00" end="75.00" probability="0.1" route="r_17"/>
   <flow id="f_2_0" begin="70.00" end="130.00" probability="0.1" route="r_0"/>
   <flow id="f_2_1" begin="70.00" end="130.00" probability="0.1" route="r_1"/>
   <flow id="f_2_2" begin="70.00" end="100.00" probability="0.3" route="r_2"/>
   <flow id="f_2_3" begin="70.00" end="100.00" probability="0.1" route="r_3"/>
   <flow id="f_2_4" begin="70.00" end="130.00" probability="0.1" route="r_4"/>
   <flow id="f_2_5" begin="70.00" end="130.00" probability="0.2" route="r_5"/>
   <flow id="f_3_12" begin="75.00" end="100.00" probability="0.1" route="r_12"/>
   <flow id="f_3_13" begin="75.00" end="100.00" probability="0.1" route="r_13"/>
   <flow id="f_3_14" begin="75.00" end="100.00" probability="0.32" route="r_14"/>
   <flow id="f_3_15" begin="75.00" end="100.00" probability="0.34" route="r_15"/>
   <flow id="f_3_16" begin="75.00" end="100.00" probability="0.1" route="r_16"/>
   <flow id="f_3_17" begin="75.00" end="100.00" probability="0.3" route="r_17"/>
   <flow id="f_3_2" begin="100.00" end="130.00" probability="0.1" route="r_2"/>
   <flow id="f_3_3" begin="100.00" end="130.00" probability="0.3" route="r_3"/>
   <flow id="f_4_12" begin="100.00" end="125.00" probability="0.33" route="r_12"/>
   <flow id="f_4_13" begin="100.00" end="125.00" probability="0.32" route="r_13"/>
   <flow id="f_4_14" begin="100.00" end="125.00" probability="0.1" route="r_14"/>
   <flow id="f_4_15" begin="100.00" end="125.00" probability="0.1" route="r_15"/>
   <flow id="f_4_16" begin="100.00" end="125.00" probability="0.34" route="r_16"/>
   <flow id="f_4_17" begin="100.00" end="125.00" probability="0.1" route="r_17"/>
   <flow id="f_5_12" begin="125.00" end="150.00" probability="0.05" route="r_12"/>
   <flow id="f_5_13" begin="125.00" end="150.00" probability="0.05" route="r_13"/>
   <flow id="f_5_14" begin="125.00" end="200.00" probability="0.3" route="r_14"/>
   <flow id="f_5_15" begin="125.00" end="200.00" probability="0.3" route="r_15"/>
   <flow id="f_5_16" begin="125.00" end="200.00" probability="0.3" route="r_16"/>
   <flow id="f_5_17" begin="125.00" end="200.00" probability="0.3" route="r_17"/>
   <flow id="f_4_0" begin="140.00" end="200.00" probability="0.2" route="r_0"/>
   <flow id="f_4_1" begin="140.00" end="200.00" probability="0.1" route="r_1"/>
   <flow id="f_4_2" begin="140.00" end="200.00" probability="0.1" route="r_2"/>
   <flow id="f_4_3" begin="140.00" end="200.00" probability="0.1" route="r_3"/>
   <flow id="f_4_4" begin="140.00" end="170.00" probability="0.3" route="r_4"/>
   <flow id="f_4_5" begin="140.00" end="170.00" probability="0.1" route="r_5"/>
   <flow id="f_5_4" begin="170.00" end="200.00" probability="0.1" route="r_4"/>
   <flow id="f_5_5" begin="170.00" end="200.00" probability="0.3" route="r_5"/>
</routes>