<?xml version="1.0" encoding="UTF-8"?>

<!-- generated on 2024-03-21 11:39:30 by Eclipse SUMO netedit Version 1.17.0
-->

<routes xmlns:xsi="http://www.w3.org/2001/XMLSchema-instance" xsi:noNamespaceSchemaLocation="http://sumo.dlr.de/xsd/routes_file.xsd">
    <!-- Routes -->
    <route id="r_0" edges="A7B7 B7C7 C7D7 D7E7"/>
    <route id="r_1" edges="F7E7 E7D7 D7C7 C7B7"/>
    <route id="r_10" edges="H5H6 H6H7 H7H8"/>
    <route id="r_11" edges="H9H8 H8H7 H7H6"/>
    <route id="r_12" edges="A4B4 B4C4 C4D4 D4E4"/>
    <route id="r_13" edges="F4E4 E4D4 D4C4 C4B4"/>
    <route id="r_14" edges="C2C3 C3C4 C4C5"/>
    <route id="r_15" edges="C6C5 C5C4 C4C3"/>
    <route id="r_16" edges="D2D3 D3D4 D4D5"/>
    <route id="r_17" edges="D6D5 D5D4 D4D3"/>
    <route id="r_18" edges="E4F4 F4G4 G4H4 H4I4"/>
    <route id="r_19" edges="J4I4 I4H4 H4G4 G4F4"/>
    <route id="r_2" edges="C5C6 C6C7 C7C8"/>
    <route id="r_20" edges="G2G3 G3G4 G4G5"/>
    <route id="r_21" edges="G6G5 G5G4 G4G3"/>
    <route id="r_22" edges="H2H3 H3H4 H4H5"/>
    <route id="r_23" edges="H6H5 H5H4 H4H3"/>
    <route id="r_3" edges="C9C8 C8C7 C7C6"/>
    <route id="r_4" edges="D5D6 D6D7 D7D8"/>
    <route id="r_5" edges="D9D8 D8D7 D7D6"/>
    <route id="r_6" edges="E7F7 F7G7 G7H7 H7I7"/>
    <route id="r_7" edges="J7I7 I7H7 H7G7 G7F7"/>
    <route id="r_8" edges="G5G6 G6G7 G7G8"/>
    <route id="r_9" edges="G9G8 G8G7 G7G6"/>
	
   <flow id="f_0_0" begin="0.00" end="350.00" probability="0.23" route="r_0"/>
   <flow id="f_0_1" begin="0.00" end="350.00" probability="0.23" route="r_1"/>
   <flow id="f_0_6" begin="0.00" end="50.00" probability="0.37" route="r_6"/>
   <flow id="f_0_7" begin="0.00" end="50.00" probability="0.148" route="r_7"/>
   <flow id="f_0_8" begin="0.00" end="50.00" probability="0.148" route="r_8"/>
   <flow id="f_0_9" begin="0.00" end="50.00" probability="0.148" route="r_9"/>
   <flow id="f_0_10" begin="0.00" end="50.00" probability="0.148" route="r_10"/>
   <flow id="f_0_11" begin="0.00" end="50.00" probability="0.148" route="r_11"/>
   <flow id="f_1_12" begin="0.00" end="50.00" probability="0.1257623369433971" route="r_12"/>
   <flow id="f_1_13" begin="0.00" end="50.00" probability="0.17705467311704953" route="r_13"/>
   <flow id="f_1_14" begin="0.00" end="50.00" probability="0.19990105643883083" route="r_14"/>
   <flow id="f_1_15" begin="0.00" end="50.00" probability="0.154139237424285" route="r_15"/>
   <flow id="f_1_16" begin="0.00" end="50.00" probability="0.1778436063854607" route="r_16"/>
   <flow id="f_1_17" begin="0.00" end="50.00" probability="0.2801255742470323" route="r_17"/>
   <flow id="f_1_18" begin="0.00" end="50.00" probability="0.23019143977838416" route="r_18"/>
   <flow id="f_1_19" begin="0.00" end="50.00" probability="0.22783030771681734" route="r_19"/>
   <flow id="f_1_20" begin="0.00" end="50.00" probability="0.29356893644754056" route="r_20"/>
   <flow id="f_1_21" begin="0.00" end="50.00" probability="0.28298271891499405" route="r_21"/>
   <flow id="f_1_22" begin="0.00" end="50.00" probability="0.12698036198922913" route="r_22"/>
   <flow id="f_1_23" begin="0.00" end="50.00" probability="0.11316054116346395" route="r_23"/>
   <flow id="f_0_3" begin="20.00" end="350.00" probability="0.23" route="r_3"/>
   <flow id="f_0_4" begin="40.00" end="350.00" probability="0.23" route="r_4"/>
   <flow id="f_1_6" begin="50.00" end="100.00" probability="0.148" route="r_6"/>
   <flow id="f_1_7" begin="50.00" end="100.00" probability="0.37" route="r_7"/>
   <flow id="f_1_8" begin="50.00" end="100.00" probability="0.148" route="r_8"/>
   <flow id="f_1_9" begin="50.00" end="100.00" probability="0.148" route="r_9"/>
   <flow id="f_1_10" begin="50.00" end="100.00" probability="0.148" route="r_10"/>
   <flow id="f_1_11" begin="50.00" end="100.00" probability="0.148" route="r_11"/>
   <flow id="f_2_12" begin="50.00" end="100.00" probability="0.21977771487918507" route="r_12"/>
   <flow id="f_2_13" begin="50.00" end="100.00" probability="0.18974543022604162" route="r_13"/>
   <flow id="f_2_14" begin="50.00" end="100.00" probability="0.12405098570560531" route="r_14"/>
   <flow id="f_2_15" begin="50.00" end="100.00" probability="0.26347717498724427" route="r_15"/>
   <flow id="f_2_16" begin="50.00" end="100.00" probability="0.15136123357042913" route="r_16"/>
   <flow id="f_2_17" begin="50.00" end="100.00" probability="0.2461389630206094" route="r_17"/>
   <flow id="f_2_18" begin="50.00" end="100.00" probability="0.2573197346474304" route="r_18"/>
   <flow id="f_2_19" begin="50.00" end="100.00" probability="0.11437481730017687" route="r_19"/>
   <flow id="f_2_20" begin="50.00" end="100.00" probability="0.2748565913321078" route="r_20"/>
   <flow id="f_2_21" begin="50.00" end="100.00" probability="0.23421431322833663" route="r_21"/>
   <flow id="f_2_22" begin="50.00" end="100.00" probability="0.19197009435088336" route="r_22"/>
   <flow id="f_2_23" begin="50.00" end="100.00" probability="0.23480137086943298" route="r_23"/>
   <flow id="f_0_2" begin="60.00" end="350.00" probability="0.23" route="r_2"/>
   <flow id="f_0_5" begin="80.00" end="350.00" probability="0.23" route="r_5"/>
   <flow id="f_2_6" begin="100.00" end="150.00" probability="0.148" route="r_6"/>
   <flow id="f_2_7" begin="100.00" end="150.00" probability="0.148" route="r_7"/>
   <flow id="f_2_8" begin="100.00" end="150.00" probability="0.37" route="r_8"/>
   <flow id="f_2_9" begin="100.00" end="150.00" probability="0.148" route="r_9"/>
   <flow id="f_2_10" begin="100.00" end="150.00" probability="0.148" route="r_10"/>
   <flow id="f_2_11" begin="100.00" end="150.00" probability="0.148" route="r_11"/>
   <flow id="f_3_12" begin="100.00" end="150.00" probability="0.12857235047906354" route="r_12"/>
   <flow id="f_3_13" begin="100.00" end="150.00" probability="0.1551993762491732" route="r_13"/>
   <flow id="f_3_14" begin="100.00" end="150.00" probability="0.26003604341329933" route="r_14"/>
   <flow id="f_3_15" begin="100.00" end="150.00" probability="0.2061307507702591" route="r_15"/>
   <flow id="f_3_16" begin="100.00" end="150.00" probability="0.2265496892957462" route="r_16"/>
   <flow id="f_3_17" begin="100.00" end="150.00" probability="0.2911233367640281" route="r_17"/>
   <flow id="f_3_18" begin="100.00" end="150.00" probability="0.23089359491426892" route="r_18"/>
   <flow id="f_3_19" begin="100.00" end="150.00" probability="0.2348529052118356" route="r_19"/>
   <flow id="f_3_20" begin="100.00" end="150.00" probability="0.2311206527091336" route="r_20"/>
   <flow id="f_3_21" begin="100.00" end="150.00" probability="0.16496537295942806" route="r_21"/>
   <flow id="f_3_22" begin="100.00" end="150.00" probability="0.1712482675525981" route="r_22"/>
   <flow id="f_3_23" begin="100.00" end="150.00" probability="0.1946112551183795" route="r_23"/>
   <flow id="f_3_6" begin="150.00" end="200.00" probability="0.148" route="r_6"/>
   <flow id="f_3_7" begin="150.00" end="200.00" probability="0.148" route="r_7"/>
   <flow id="f_3_8" begin="150.00" end="200.00" probability="0.148" route="r_8"/>
   <flow id="f_3_9" begin="150.00" end="200.00" probability="0.37" route="r_9"/>
   <flow id="f_3_10" begin="150.00" end="200.00" probability="0.148" route="r_10"/>
   <flow id="f_3_11" begin="150.00" end="200.00" probability="0.148" route="r_11"/>
   <flow id="f_4_12" begin="150.00" end="200.00" probability="0.11724120436900823" route="r_12"/>
   <flow id="f_4_13" begin="150.00" end="200.00" probability="0.14170751098533407" route="r_13"/>
   <flow id="f_4_14" begin="150.00" end="200.00" probability="0.18529911646214964" route="r_14"/>
   <flow id="f_4_15" begin="150.00" end="200.00" probability="0.26507574582370047" route="r_15"/>
   <flow id="f_4_16" begin="150.00" end="200.00" probability="0.247002552460656" route="r_16"/>
   <flow id="f_4_17" begin="150.00" end="200.00" probability="0.23785566128274477" route="r_17"/>
   <flow id="f_4_18" begin="150.00" end="200.00" probability="0.22074613418470468" route="r_18"/>
   <flow id="f_4_19" begin="150.00" end="200.00" probability="0.15796090842767038" route="r_19"/>
   <flow id="f_4_20" begin="150.00" end="200.00" probability="0.11549591867547225" route="r_20"/>
   <flow id="f_4_21" begin="150.00" end="200.00" probability="0.197524077368971" route="r_21"/>
   <flow id="f_4_22" begin="150.00" end="200.00" probability="0.13572463685109712" route="r_22"/>
   <flow id="f_4_23" begin="150.00" end="200.00" probability="0.16168066799422703" route="r_23"/>
   <flow id="f_4_6" begin="200.00" end="250.00" probability="0.148" route="r_6"/>
   <flow id="f_4_7" begin="200.00" end="250.00" probability="0.148" route="r_7"/>
   <flow id="f_4_8" begin="200.00" end="250.00" probability="0.148" route="r_8"/>
   <flow id="f_4_9" begin="200.00" end="250.00" probability="0.148" route="r_9"/>
   <flow id="f_4_10" begin="200.00" end="250.00" probability="0.37" route="r_10"/>
   <flow id="f_4_11" begin="200.00" end="250.00" probability="0.148" route="r_11"/>
   <flow id="f_5_12" begin="200.00" end="250.00" probability="0.25001380131778184" route="r_12"/>
   <flow id="f_5_13" begin="200.00" end="250.00" probability="0.2647106596875731" route="r_13"/>
   <flow id="f_5_14" begin="200.00" end="250.00" probability="0.23361303354432308" route="r_14"/>
   <flow id="f_5_15" begin="200.00" end="250.00" probability="0.1518812798703651" route="r_15"/>
   <flow id="f_5_16" begin="200.00" end="250.00" probability="0.1951637065649942" route="r_16"/>
   <flow id="f_5_17" begin="200.00" end="250.00" probability="0.24415605697636558" route="r_17"/>
   <flow id="f_5_18" begin="200.00" end="250.00" probability="0.21913331419962492" route="r_18"/>
   <flow id="f_5_19" begin="200.00" end="250.00" probability="0.15178696060277305" route="r_19"/>
   <flow id="f_5_20" begin="200.00" end="250.00" probability="0.2188979999130371" route="r_20"/>
   <flow id="f_5_21" begin="200.00" end="250.00" probability="0.17417878352814847" route="r_21"/>
   <flow id="f_5_22" begin="200.00" end="250.00" probability="0.24141797699807815" route="r_22"/>
   <flow id="f_5_23" begin="200.00" end="250.00" probability="0.16463548807233547" route="r_23"/>
   <flow id="f_5_6" begin="250.00" end="300.00" probability="0.148" route="r_6"/>
   <flow id="f_5_7" begin="250.00" end="300.00" probability="0.148" route="r_7"/>
   <flow id="f_5_8" begin="250.00" end="300.00" probability="0.148" route="r_8"/>
   <flow id="f_5_9" begin="250.00" end="300.00" probability="0.148" route="r_9"/>
   <flow id="f_5_10" begin="250.00" end="300.00" probability="0.148" route="r_10"/>
   <flow id="f_5_11" begin="250.00" end="300.00" probability="0.37" route="r_11"/>
   <flow id="f_6_12" begin="250.00" end="300.00" probability="0.11464977357506068" route="r_12"/>
   <flow id="f_6_13" begin="250.00" end="300.00" probability="0.2693750907661302" route="r_13"/>
   <flow id="f_6_14" begin="250.00" end="300.00" probability="0.2852101082192523" route="r_14"/>
   <flow id="f_6_15" begin="250.00" end="300.00" probability="0.2081257539430038" route="r_15"/>
   <flow id="f_6_16" begin="250.00" end="300.00" probability="0.22192144041401207" route="r_16"/>
   <flow id="f_6_17" begin="250.00" end="300.00" probability="0.282923330408512" route="r_17"/>
   <flow id="f_6_18" begin="250.00" end="300.00" probability="0.29264901669263776" route="r_18"/>
   <flow id="f_6_19" begin="250.00" end="300.00" probability="0.2259717228930499" route="r_19"/>
   <flow id="f_6_20" begin="250.00" end="300.00" probability="0.28912102192182876" route="r_20"/>
   <flow id="f_6_21" begin="250.00" end="300.00" probability="0.2436559283519007" route="r_21"/>
   <flow id="f_6_22" begin="250.00" end="300.00" probability="0.2514532796230764" route="r_22"/>
   <flow id="f_6_23" begin="250.00" end="300.00" probability="0.12308778625461347" route="r_23"/>
   <flow id="f_6_6" begin="300.00" end="350.00" probability="0.37" route="r_6"/>
   <flow id="f_6_7" begin="300.00" end="350.00" probability="0.148" route="r_7"/>
   <flow id="f_6_8" begin="300.00" end="350.00" probability="0.148" route="r_8"/>
   <flow id="f_6_9" begin="300.00" end="350.00" probability="0.148" route="r_9"/>
   <flow id="f_6_10" begin="300.00" end="350.00" probability="0.148" route="r_10"/>
   <flow id="f_6_11" begin="300.00" end="350.00" probability="0.148" route="r_11"/>
   <flow id="f_7_12" begin="300.00" end="350.00" probability="0.17925787714701386" route="r_12"/>
   <flow id="f_7_13" begin="300.00" end="350.00" probability="0.2859711313950425" route="r_13"/>
   <flow id="f_7_14" begin="300.00" end="350.00" probability="0.18546810365047106" route="r_14"/>
   <flow id="f_7_15" begin="300.00" end="350.00" probability="0.11927809093241724" route="r_15"/>
   <flow id="f_7_16" begin="300.00" end="350.00" probability="0.20306385138757238" route="r_16"/>
   <flow id="f_7_17" begin="300.00" end="350.00" probability="0.2679327476028107" route="r_17"/>
   <flow id="f_7_18" begin="300.00" end="350.00" probability="0.11141999823209219" route="r_18"/>
   <flow id="f_7_19" begin="300.00" end="350.00" probability="0.1191027394919209" route="r_19"/>
   <flow id="f_7_20" begin="300.00" end="350.00" probability="0.22118039381147053" route="r_20"/>
   <flow id="f_7_21" begin="300.00" end="350.00" probability="0.21156125263393766" route="r_21"/>
   <flow id="f_7_22" begin="300.00" end="350.00" probability="0.14294530705327496" route="r_22"/>
   <flow id="f_7_23" begin="300.00" end="350.00" probability="0.24156213711613353" route="r_23"/>
   <flow id="f_8_12" begin="350.00" end="400.00" probability="0.27235124517965514" route="r_12"/>
   <flow id="f_8_13" begin="350.00" end="400.00" probability="0.2847049899825992" route="r_13"/>
   <flow id="f_8_14" begin="350.00" end="400.00" probability="0.13249790673292952" route="r_14"/>
   <flow id="f_8_15" begin="350.00" end="400.00" probability="0.21569818962766318" route="r_15"/>
   <flow id="f_8_16" begin="350.00" end="400.00" probability="0.1425277360905308" route="r_16"/>
   <flow id="f_8_17" begin="350.00" end="400.00" probability="0.12153849289540464" route="r_17"/>
   <flow id="f_8_18" begin="350.00" end="400.00" probability="0.11036379881028242" route="r_18"/>
   <flow id="f_8_19" begin="350.00" end="400.00" probability="0.12061263590465449" route="r_19"/>
   <flow id="f_8_20" begin="350.00" end="400.00" probability="0.2205534709386017" route="r_20"/>
   <flow id="f_8_21" begin="350.00" end="400.00" probability="0.1880018128885848" route="r_21"/>
   <flow id="f_8_22" begin="350.00" end="400.00" probability="0.2081596868725754" route="r_22"/>
   <flow id="f_8_23" begin="350.00" end="400.00" probability="0.11339637457115159" route="r_23"/>
</routes>