<?xml version="1.0" encoding="UTF-8"?>

<!-- generated on 2024-03-21 11:39:30 by Eclipse SUMO netedit Version 1.17.0
-->

<routes xmlns:xsi="http://www.w3.org/2001/XMLSchema-instance" xsi:noNamespaceSchemaLocation="http://sumo.dlr.de/xsd/routes_file.xsd">
    <!-- Routes -->
    <route id="r_0" edges="A7B7 B7C7 C7D7 D7E7"/>
    <route id="r_1" edges="F7E7 E7D7 D7C7 C7B7"/>
    <route id="r_10" edges="H5H6 H6H7 H7H8"/>
    <route id="r_11" edges="H9H8 H8H7 H7H6"/>
    <route id="r_12" edges="A4B4 B4C4 C4D4 D4E4"/>
    <route id="r_13" edges="F4E4 E4D4 D4C4 C4B4"/>
    <route id="r_14" edges="C2C3 C3C4 C4C5"/>
    <route id="r_15" edges="C6C5 C5C4 C4C3"/>
    <route id="r_16" edges="D2D3 D3D4 D4D5"/>
    <route id="r_17" edges="D6D5 D5D4 D4D3"/>
    <route id="r_18" edges="E4F4 F4G4 G4H4 H4I4"/>
    <route id="r_19" edges="J4I4 I4H4 H4G4 G4F4"/>
    <route id="r_2" edges="C5C6 C6C7 C7C8"/>
    <route id="r_20" edges="G2G3 G3G4 G4G5"/>
    <route id="r_21" edges="G6G5 G5G4 G4G3"/>
    <route id="r_22" edges="H2H3 H3H4 H4H5"/>
    <route id="r_23" edges="H6H5 H5H4 H4H3"/>
    <route id="r_3" edges="C9C8 C8C7 C7C6"/>
    <route id="r_4" edges="D5D6 D6D7 D7D8"/>
    <route id="r_5" edges="D9D8 D8D7 D7D6"/>
    <route id="r_6" edges="E7F7 F7G7 G7H7 H7I7"/>
    <route id="r_7" edges="J7I7 I7H7 H7G7 G7F7"/>
    <route id="r_8" edges="G5G6 G6G7 G7G8"/>
    <route id="r_9" edges="G9G8 G8G7 G7G6"/>
	
   <flow id="f_0_0" begin="0.00" end="350.00" probability="0.37" route="r_0"/>
   <flow id="f_0_1" begin="0.00" end="350.00" probability="0.16" route="r_1"/>
   <flow id="f_0_2" begin="0.00" end="350.00" probability="0.35" route="r_2"/>
   <flow id="f_0_3" begin="0.00" end="350.00" probability="0.14" route="r_3"/>
   <flow id="f_0_4" begin="0.00" end="350.00" probability="0.33" route="r_4"/>
   <flow id="f_0_5" begin="0.00" end="350.00" probability="0.12" route="r_5"/>
   <flow id="f_1_6" begin="0.00" end="52.00" probability="0.3745469724258157" route="r_6"/>
   <flow id="f_1_7" begin="0.00" end="52.00" probability="0.31392147847165336" route="r_7"/>
   <flow id="f_1_8" begin="0.00" end="52.00" probability="0.03320870553386082" route="r_8"/>
   <flow id="f_1_9" begin="0.00" end="52.00" probability="0.3365827986317483" route="r_9"/>
   <flow id="f_1_10" begin="0.00" end="52.00" probability="0.09543821080249193" route="r_10"/>
   <flow id="f_1_11" begin="0.00" end="52.00" probability="0.10005385761687259" route="r_11"/>
   <flow id="f_1_12" begin="0.00" end="52.00" probability="0.2066213229113253" route="r_12"/>
   <flow id="f_1_13" begin="0.00" end="52.00" probability="0.20619356546912232" route="r_13"/>
   <flow id="f_1_14" begin="0.00" end="52.00" probability="0.26315260158707987" route="r_14"/>
   <flow id="f_1_15" begin="0.00" end="52.00" probability="0.06036278069606163" route="r_15"/>
   <flow id="f_1_16" begin="0.00" end="52.00" probability="0.15903297742451603" route="r_16"/>
   <flow id="f_1_17" begin="0.00" end="52.00" probability="0.23675624765464579" route="r_17"/>
   <flow id="f_1_18" begin="0.00" end="52.00" probability="0.28485622013371525" route="r_18"/>
   <flow id="f_1_19" begin="0.00" end="52.00" probability="0.34152164119653755" route="r_19"/>
   <flow id="f_1_20" begin="0.00" end="52.00" probability="0.2144451586114864" route="r_20"/>
   <flow id="f_1_21" begin="0.00" end="52.00" probability="0.25773091373292706" route="r_21"/>
   <flow id="f_1_22" begin="0.00" end="52.00" probability="0.046657925133886835" route="r_22"/>
   <flow id="f_1_23" begin="0.00" end="52.00" probability="0.07770077747326093" route="r_23"/>
   <flow id="f_2_6" begin="50.00" end="102.00" probability="0.21260609237712655" route="r_6"/>
   <flow id="f_2_7" begin="50.00" end="102.00" probability="0.08572234038049883" route="r_7"/>
   <flow id="f_2_8" begin="50.00" end="102.00" probability="0.35604439978809077" route="r_8"/>
   <flow id="f_2_9" begin="50.00" end="102.00" probability="0.04664333102329804" route="r_9"/>
   <flow id="f_2_10" begin="50.00" end="102.00" probability="0.2516378565674109" route="r_10"/>
   <flow id="f_2_11" begin="50.00" end="102.00" probability="0.18884260255534405" route="r_11"/>
   <flow id="f_2_12" begin="50.00" end="102.00" probability="0.2347581340052277" route="r_12"/>
   <flow id="f_2_13" begin="50.00" end="102.00" probability="0.3407103587753971" route="r_13"/>
   <flow id="f_2_14" begin="50.00" end="102.00" probability="0.3389999698937247" route="r_14"/>
   <flow id="f_2_15" begin="50.00" end="102.00" probability="0.07723108189893133" route="r_15"/>
   <flow id="f_2_16" begin="50.00" end="102.00" probability="0.18215919555256133" route="r_16"/>
   <flow id="f_2_17" begin="50.00" end="102.00" probability="0.4056713622389373" route="r_17"/>
   <flow id="f_2_18" begin="50.00" end="102.00" probability="0.20095793210330534" route="r_18"/>
   <flow id="f_2_19" begin="50.00" end="102.00" probability="0.40247509124175396" route="r_19"/>
   <flow id="f_2_20" begin="50.00" end="102.00" probability="0.30203247132345" route="r_20"/>
   <flow id="f_2_21" begin="50.00" end="102.00" probability="0.3385068443543887" route="r_21"/>
   <flow id="f_2_22" begin="50.00" end="102.00" probability="0.2740740497616916" route="r_22"/>
   <flow id="f_2_23" begin="50.00" end="102.00" probability="0.12246158226670835" route="r_23"/>
   <flow id="f_3_6" begin="100.00" end="152.00" probability="0.4186631423691648" route="r_6"/>
   <flow id="f_3_7" begin="100.00" end="152.00" probability="0.052398037820062277" route="r_7"/>
   <flow id="f_3_8" begin="100.00" end="152.00" probability="0.3221245483704346" route="r_8"/>
   <flow id="f_3_9" begin="100.00" end="152.00" probability="0.11975092314461434" route="r_9"/>
   <flow id="f_3_10" begin="100.00" end="152.00" probability="0.32574904562431184" route="r_10"/>
   <flow id="f_3_11" begin="100.00" end="152.00" probability="0.05281769851223608" route="r_11"/>
   <flow id="f_3_12" begin="100.00" end="152.00" probability="0.4133553663952817" route="r_12"/>
   <flow id="f_3_13" begin="100.00" end="152.00" probability="0.3218687579576448" route="r_13"/>
   <flow id="f_3_14" begin="100.00" end="152.00" probability="0.36378820396116507" route="r_14"/>
   <flow id="f_3_15" begin="100.00" end="152.00" probability="0.3689359120132899" route="r_15"/>
   <flow id="f_3_16" begin="100.00" end="152.00" probability="0.2778151788237945" route="r_16"/>
   <flow id="f_3_17" begin="100.00" end="152.00" probability="0.169902949759106" route="r_17"/>
   <flow id="f_3_18" begin="100.00" end="152.00" probability="0.3176164863865073" route="r_18"/>
   <flow id="f_3_19" begin="100.00" end="152.00" probability="0.16949054133779903" route="r_19"/>
   <flow id="f_3_20" begin="100.00" end="152.00" probability="0.033852786243405514" route="r_20"/>
   <flow id="f_3_21" begin="100.00" end="152.00" probability="0.30569656423218206" route="r_21"/>
   <flow id="f_3_22" begin="100.00" end="152.00" probability="0.10313736695799935" route="r_22"/>
   <flow id="f_3_23" begin="100.00" end="152.00" probability="0.045502000511775303" route="r_23"/>
   <flow id="f_4_6" begin="150.00" end="202.00" probability="0.260097834341837" route="r_6"/>
   <flow id="f_4_7" begin="150.00" end="202.00" probability="0.3383277855380106" route="r_7"/>
   <flow id="f_4_8" begin="150.00" end="202.00" probability="0.21158795804569705" route="r_8"/>
   <flow id="f_4_9" begin="150.00" end="202.00" probability="0.1948749861686357" route="r_9"/>
   <flow id="f_4_10" begin="150.00" end="202.00" probability="0.4093528226474179" route="r_10"/>
   <flow id="f_4_11" begin="150.00" end="202.00" probability="0.2806271696695347" route="r_11"/>
   <flow id="f_4_12" begin="150.00" end="202.00" probability="0.29434382367799217" route="r_12"/>
   <flow id="f_4_13" begin="150.00" end="202.00" probability="0.2807763509635083" route="r_13"/>
   <flow id="f_4_14" begin="150.00" end="202.00" probability="0.1110518867764505" route="r_14"/>
   <flow id="f_4_15" begin="150.00" end="202.00" probability="0.3983168884243463" route="r_15"/>
   <flow id="f_4_16" begin="150.00" end="202.00" probability="0.4120893961057628" route="r_16"/>
   <flow id="f_4_17" begin="150.00" end="202.00" probability="0.25142438102770814" route="r_17"/>
   <flow id="f_4_18" begin="150.00" end="202.00" probability="0.3559124895112581" route="r_18"/>
   <flow id="f_4_19" begin="150.00" end="202.00" probability="0.06575251290378936" route="r_19"/>
   <flow id="f_4_20" begin="150.00" end="202.00" probability="0.08701471912242684" route="r_20"/>
   <flow id="f_4_21" begin="150.00" end="202.00" probability="0.3135741444951716" route="r_21"/>
   <flow id="f_4_22" begin="150.00" end="202.00" probability="0.30641255361837594" route="r_22"/>
   <flow id="f_4_23" begin="150.00" end="202.00" probability="0.06440600509180411" route="r_23"/>
   <flow id="f_5_6" begin="200.00" end="252.00" probability="0.20606248036118022" route="r_6"/>
   <flow id="f_5_7" begin="200.00" end="252.00" probability="0.20329471309456693" route="r_7"/>
   <flow id="f_5_8" begin="200.00" end="252.00" probability="0.39406811610463477" route="r_8"/>
   <flow id="f_5_9" begin="200.00" end="252.00" probability="0.35314709954090995" route="r_9"/>
   <flow id="f_5_10" begin="200.00" end="252.00" probability="0.10340645717279692" route="r_10"/>
   <flow id="f_5_11" begin="200.00" end="252.00" probability="0.4130684251865275" route="r_11"/>
   <flow id="f_5_12" begin="200.00" end="252.00" probability="0.26252599251650877" route="r_12"/>
   <flow id="f_5_13" begin="200.00" end="252.00" probability="0.43539527284684965" route="r_13"/>
   <flow id="f_5_14" begin="200.00" end="252.00" probability="0.11800703154703152" route="r_14"/>
   <flow id="f_5_15" begin="200.00" end="252.00" probability="0.09153113096358423" route="r_15"/>
   <flow id="f_5_16" begin="200.00" end="252.00" probability="0.342315824794437" route="r_16"/>
   <flow id="f_5_17" begin="200.00" end="252.00" probability="0.08277876068121265" route="r_17"/>
   <flow id="f_5_18" begin="200.00" end="252.00" probability="0.3378798118173578" route="r_18"/>
   <flow id="f_5_19" begin="200.00" end="252.00" probability="0.15056935257810689" route="r_19"/>
   <flow id="f_5_20" begin="200.00" end="252.00" probability="0.2711421100967689" route="r_20"/>
   <flow id="f_5_21" begin="200.00" end="252.00" probability="0.23257135103915663" route="r_21"/>
   <flow id="f_5_22" begin="200.00" end="252.00" probability="0.15045663813737306" route="r_22"/>
   <flow id="f_5_23" begin="200.00" end="252.00" probability="0.24589276803436133" route="r_23"/>
   <flow id="f_6_6" begin="250.00" end="302.00" probability="0.3681760401163725" route="r_6"/>
   <flow id="f_6_7" begin="250.00" end="302.00" probability="0.3346708697264745" route="r_7"/>
   <flow id="f_6_8" begin="250.00" end="302.00" probability="0.1891185412208801" route="r_8"/>
   <flow id="f_6_9" begin="250.00" end="302.00" probability="0.447142717521669" route="r_9"/>
   <flow id="f_6_10" begin="250.00" end="302.00" probability="0.40496634185662217" route="r_10"/>
   <flow id="f_6_11" begin="250.00" end="302.00" probability="0.24762718194247224" route="r_11"/>
   <flow id="f_6_12" begin="250.00" end="302.00" probability="0.0811111543753863" route="r_12"/>
   <flow id="f_6_13" begin="250.00" end="302.00" probability="0.10523818475810365" route="r_13"/>
   <flow id="f_6_14" begin="250.00" end="302.00" probability="0.4313912390124591" route="r_14"/>
   <flow id="f_6_15" begin="250.00" end="302.00" probability="0.4403340556926894" route="r_15"/>
   <flow id="f_6_16" begin="250.00" end="302.00" probability="0.3485959603228753" route="r_16"/>
   <flow id="f_6_17" begin="250.00" end="302.00" probability="0.1356907310051642" route="r_17"/>
   <flow id="f_6_18" begin="250.00" end="302.00" probability="0.14859187970464605" route="r_18"/>
   <flow id="f_6_19" begin="250.00" end="302.00" probability="0.10662292489173947" route="r_19"/>
   <flow id="f_6_20" begin="250.00" end="302.00" probability="0.36724320779526365" route="r_20"/>
   <flow id="f_6_21" begin="250.00" end="302.00" probability="0.09069513940678106" route="r_21"/>
   <flow id="f_6_22" begin="250.00" end="302.00" probability="0.24963354060588602" route="r_22"/>
   <flow id="f_6_23" begin="250.00" end="302.00" probability="0.4194160408885936" route="r_23"/>
   <flow id="f_7_6" begin="300.00" end="352.00" probability="0.07228170588002936" route="r_6"/>
   <flow id="f_7_7" begin="300.00" end="352.00" probability="0.3623307489892587" route="r_7"/>
   <flow id="f_7_8" begin="300.00" end="352.00" probability="0.08239348920739631" route="r_8"/>
   <flow id="f_7_9" begin="300.00" end="352.00" probability="0.39311572652475335" route="r_9"/>
   <flow id="f_7_10" begin="300.00" end="352.00" probability="0.14236621194750965" route="r_10"/>
   <flow id="f_7_11" begin="300.00" end="352.00" probability="0.23263587130114463" route="r_11"/>
   <flow id="f_7_12" begin="300.00" end="352.00" probability="0.37241287727325423" route="r_12"/>
   <flow id="f_7_13" begin="300.00" end="352.00" probability="0.43720920373270505" route="r_13"/>
   <flow id="f_7_14" begin="300.00" end="352.00" probability="0.18203809809708674" route="r_14"/>
   <flow id="f_7_15" begin="300.00" end="352.00" probability="0.09857120174944223" route="r_15"/>
   <flow id="f_7_16" begin="300.00" end="352.00" probability="0.3327732198814251" route="r_16"/>
   <flow id="f_7_17" begin="300.00" end="352.00" probability="0.19101997659440423" route="r_17"/>
   <flow id="f_7_18" begin="300.00" end="352.00" probability="0.13379387815412552" route="r_18"/>
   <flow id="f_7_19" begin="300.00" end="352.00" probability="0.1612399698384161" route="r_19"/>
   <flow id="f_7_20" begin="300.00" end="352.00" probability="0.11046640291657894" route="r_20"/>
   <flow id="f_7_21" begin="300.00" end="352.00" probability="0.10616604746144978" route="r_21"/>
   <flow id="f_7_22" begin="300.00" end="352.00" probability="0.15705877884221073" route="r_22"/>
   <flow id="f_7_23" begin="300.00" end="352.00" probability="0.4288906816016584" route="r_23"/>
   <flow id="f_8_6" begin="350.00" end="402.00" probability="0.22825703274677467" route="r_6"/>
   <flow id="f_8_7" begin="350.00" end="402.00" probability="0.08771708871444639" route="r_7"/>
   <flow id="f_8_8" begin="350.00" end="402.00" probability="0.43925558452656593" route="r_8"/>
   <flow id="f_8_9" begin="350.00" end="402.00" probability="0.4641652648666683" route="r_9"/>
   <flow id="f_8_10" begin="350.00" end="402.00" probability="0.08669639670547483" route="r_10"/>
   <flow id="f_8_11" begin="350.00" end="402.00" probability="0.39579288544010516" route="r_11"/>
   <flow id="f_8_12" begin="350.00" end="402.00" probability="0.18481675276448262" route="r_12"/>
   <flow id="f_8_13" begin="350.00" end="402.00" probability="0.17198316232698607" route="r_13"/>
   <flow id="f_8_14" begin="350.00" end="402.00" probability="0.3150588681671206" route="r_14"/>
   <flow id="f_8_15" begin="350.00" end="402.00" probability="0.15362877461098354" route="r_15"/>
   <flow id="f_8_16" begin="350.00" end="402.00" probability="0.18309006158746155" route="r_16"/>
   <flow id="f_8_17" begin="350.00" end="402.00" probability="0.1523868494914598" route="r_17"/>
   <flow id="f_8_18" begin="350.00" end="402.00" probability="0.344889576281913" route="r_18"/>
   <flow id="f_8_19" begin="350.00" end="402.00" probability="0.28032513548484717" route="r_19"/>
   <flow id="f_8_20" begin="350.00" end="402.00" probability="0.42445614544694704" route="r_20"/>
   <flow id="f_8_21" begin="350.00" end="402.00" probability="0.3743326472510191" route="r_21"/>
   <flow id="f_8_22" begin="350.00" end="402.00" probability="0.1802315607485059" route="r_22"/>
   <flow id="f_8_23" begin="350.00" end="402.00" probability="0.38448178745114403" route="r_23"/>
   <flow id="f_1_0" begin="400.00" end="750.00" probability="0.13" route="r_0"/>
   <flow id="f_1_1" begin="400.00" end="750.00" probability="0.34" route="r_1"/>
   <flow id="f_1_2" begin="400.00" end="750.00" probability="0.15" route="r_2"/>
   <flow id="f_1_3" begin="400.00" end="750.00" probability="0.36" route="r_3"/>
   <flow id="f_1_4" begin="400.00" end="750.00" probability="0.17" route="r_4"/>
   <flow id="f_1_5" begin="400.00" end="750.00" probability="0.38" route="r_5"/>
   <flow id="f_9_6" begin="400.00" end="452.00" probability="0.3633998810659507" route="r_6"/>
   <flow id="f_9_7" begin="400.00" end="452.00" probability="0.1648807115316781" route="r_7"/>
   <flow id="f_9_8" begin="400.00" end="452.00" probability="0.11963960419134376" route="r_8"/>
   <flow id="f_9_9" begin="400.00" end="452.00" probability="0.14171459040043516" route="r_9"/>
   <flow id="f_9_10" begin="400.00" end="452.00" probability="0.2595227627903446" route="r_10"/>
   <flow id="f_9_11" begin="400.00" end="452.00" probability="0.2041514556053962" route="r_11"/>
   <flow id="f_9_12" begin="400.00" end="452.00" probability="0.1434131582434805" route="r_12"/>
   <flow id="f_9_13" begin="400.00" end="452.00" probability="0.43762381520673077" route="r_13"/>
   <flow id="f_9_14" begin="400.00" end="452.00" probability="0.18857184096911825" route="r_14"/>
   <flow id="f_9_15" begin="400.00" end="452.00" probability="0.3058491879615223" route="r_15"/>
   <flow id="f_9_16" begin="400.00" end="452.00" probability="0.4708944473919844" route="r_16"/>
   <flow id="f_9_17" begin="400.00" end="452.00" probability="0.1442902388558874" route="r_17"/>
   <flow id="f_9_18" begin="400.00" end="452.00" probability="0.3901436378760218" route="r_18"/>
   <flow id="f_9_19" begin="400.00" end="452.00" probability="0.4506102362762371" route="r_19"/>
   <flow id="f_9_20" begin="400.00" end="452.00" probability="0.1078665305911033" route="r_20"/>
   <flow id="f_9_21" begin="400.00" end="452.00" probability="0.47596666620665656" route="r_21"/>
   <flow id="f_9_22" begin="400.00" end="452.00" probability="0.35191083556124125" route="r_22"/>
   <flow id="f_9_23" begin="400.00" end="452.00" probability="0.14844512020758568" route="r_23"/>
   <flow id="f_10_6" begin="450.00" end="502.00" probability="0.2814830726869484" route="r_6"/>
   <flow id="f_10_7" begin="450.00" end="502.00" probability="0.3877397284903866" route="r_7"/>
   <flow id="f_10_8" begin="450.00" end="502.00" probability="0.23429247497676084" route="r_8"/>
   <flow id="f_10_9" begin="450.00" end="502.00" probability="0.12383629724429943" route="r_9"/>
   <flow id="f_10_10" begin="450.00" end="502.00" probability="0.4108451818208038" route="r_10"/>
   <flow id="f_10_11" begin="450.00" end="502.00" probability="0.460853311136318" route="r_11"/>
   <flow id="f_10_12" begin="450.00" end="502.00" probability="0.4365877328024207" route="r_12"/>
   <flow id="f_10_13" begin="450.00" end="502.00" probability="0.30791688255448013" route="r_13"/>
   <flow id="f_10_14" begin="450.00" end="502.00" probability="0.239295782828634" route="r_14"/>
   <flow id="f_10_15" begin="450.00" end="502.00" probability="0.14350336889156307" route="r_15"/>
   <flow id="f_10_16" begin="450.00" end="502.00" probability="0.21225534408609248" route="r_16"/>
   <flow id="f_10_17" begin="450.00" end="502.00" probability="0.25352678416162117" route="r_17"/>
   <flow id="f_10_18" begin="450.00" end="502.00" probability="0.11964551809987264" route="r_18"/>
   <flow id="f_10_19" begin="450.00" end="502.00" probability="0.4078057189975353" route="r_19"/>
   <flow id="f_10_20" begin="450.00" end="502.00" probability="0.22185510753534116" route="r_20"/>
   <flow id="f_10_21" begin="450.00" end="502.00" probability="0.2797590044521232" route="r_21"/>
   <flow id="f_10_22" begin="450.00" end="502.00" probability="0.29137945197166726" route="r_22"/>
   <flow id="f_10_23" begin="450.00" end="502.00" probability="0.31900875109448545" route="r_23"/>
   <flow id="f_11_6" begin="500.00" end="552.00" probability="0.19427881447366868" route="r_6"/>
   <flow id="f_11_7" begin="500.00" end="552.00" probability="0.2168490908248913" route="r_7"/>
   <flow id="f_11_8" begin="500.00" end="552.00" probability="0.30400212707126023" route="r_8"/>
   <flow id="f_11_9" begin="500.00" end="552.00" probability="0.2462281532869057" route="r_9"/>
   <flow id="f_11_10" begin="500.00" end="552.00" probability="0.43434113228966387" route="r_10"/>
   <flow id="f_11_11" begin="500.00" end="552.00" probability="0.48887202528448703" route="r_11"/>
   <flow id="f_11_12" begin="500.00" end="552.00" probability="0.2489741243021167" route="r_12"/>
   <flow id="f_11_13" begin="500.00" end="552.00" probability="0.19372388413153402" route="r_13"/>
   <flow id="f_11_14" begin="500.00" end="552.00" probability="0.21299120965496768" route="r_14"/>
   <flow id="f_11_15" begin="500.00" end="552.00" probability="0.13142606150919756" route="r_15"/>
   <flow id="f_11_16" begin="500.00" end="552.00" probability="0.20200170086804675" route="r_16"/>
   <flow id="f_11_17" begin="500.00" end="552.00" probability="0.31725761647975415" route="r_17"/>
   <flow id="f_11_18" begin="500.00" end="552.00" probability="0.23623285050857235" route="r_18"/>
   <flow id="f_11_19" begin="500.00" end="552.00" probability="0.4208580883359898" route="r_19"/>
   <flow id="f_11_20" begin="500.00" end="552.00" probability="0.1768673031790583" route="r_20"/>
   <flow id="f_11_21" begin="500.00" end="552.00" probability="0.3368217149880367" route="r_21"/>
   <flow id="f_11_22" begin="500.00" end="552.00" probability="0.23220375574747623" route="r_22"/>
   <flow id="f_11_23" begin="500.00" end="552.00" probability="0.3252470676008621" route="r_23"/>
   <flow id="f_12_6" begin="550.00" end="602.00" probability="0.3875249311166174" route="r_6"/>
   <flow id="f_12_7" begin="550.00" end="602.00" probability="0.3010946116715941" route="r_7"/>
   <flow id="f_12_8" begin="550.00" end="602.00" probability="0.38489135506293437" route="r_8"/>
   <flow id="f_12_9" begin="550.00" end="602.00" probability="0.3789896574054844" route="r_9"/>
   <flow id="f_12_10" begin="550.00" end="602.00" probability="0.23698367906909584" route="r_10"/>
   <flow id="f_12_11" begin="550.00" end="602.00" probability="0.22551252936741484" route="r_11"/>
   <flow id="f_12_12" begin="550.00" end="602.00" probability="0.5052430835537949" route="r_12"/>
   <flow id="f_12_13" begin="550.00" end="602.00" probability="0.40453082364065174" route="r_13"/>
   <flow id="f_12_14" begin="550.00" end="602.00" probability="0.505117086929392" route="r_14"/>
   <flow id="f_12_15" begin="550.00" end="602.00" probability="0.4566682962613533" route="r_15"/>
   <flow id="f_12_16" begin="550.00" end="602.00" probability="0.42108315169574023" route="r_16"/>
   <flow id="f_12_17" begin="550.00" end="602.00" probability="0.2856325391326966" route="r_17"/>
   <flow id="f_12_18" begin="550.00" end="602.00" probability="0.41475594270466243" route="r_18"/>
   <flow id="f_12_19" begin="550.00" end="602.00" probability="0.25853553222986214" route="r_19"/>
   <flow id="f_12_20" begin="550.00" end="602.00" probability="0.33309731413773547" route="r_20"/>
   <flow id="f_12_21" begin="550.00" end="602.00" probability="0.4765623759353922" route="r_21"/>
   <flow id="f_12_22" begin="550.00" end="602.00" probability="0.38470548312001973" route="r_22"/>
   <flow id="f_12_23" begin="550.00" end="602.00" probability="0.1789597193360494" route="r_23"/>
   <flow id="f_13_6" begin="600.00" end="652.00" probability="0.29229265391282844" route="r_6"/>
   <flow id="f_13_7" begin="600.00" end="652.00" probability="0.16265752592376442" route="r_7"/>
   <flow id="f_13_8" begin="600.00" end="652.00" probability="0.3279197879403377" route="r_8"/>
   <flow id="f_13_9" begin="600.00" end="652.00" probability="0.3543721311864276" route="r_9"/>
   <flow id="f_13_10" begin="600.00" end="652.00" probability="0.43937819188646093" route="r_10"/>
   <flow id="f_13_11" begin="600.00" end="652.00" probability="0.4771253400278914" route="r_11"/>
   <flow id="f_13_12" begin="600.00" end="652.00" probability="0.40667768721433817" route="r_12"/>
   <flow id="f_13_13" begin="600.00" end="652.00" probability="0.24555991500369276" route="r_13"/>
   <flow id="f_13_14" begin="600.00" end="652.00" probability="0.2886104860541799" route="r_14"/>
   <flow id="f_13_15" begin="600.00" end="652.00" probability="0.5075255861797312" route="r_15"/>
   <flow id="f_13_16" begin="600.00" end="652.00" probability="0.19792595344791125" route="r_16"/>
   <flow id="f_13_17" begin="600.00" end="652.00" probability="0.41209524164628714" route="r_17"/>
   <flow id="f_13_18" begin="600.00" end="652.00" probability="0.4100698429471656" route="r_18"/>
   <flow id="f_13_19" begin="600.00" end="652.00" probability="0.4350014807532246" route="r_19"/>
   <flow id="f_13_20" begin="600.00" end="652.00" probability="0.4156787760623079" route="r_20"/>
   <flow id="f_13_21" begin="600.00" end="652.00" probability="0.2247377685597483" route="r_21"/>
   <flow id="f_13_22" begin="600.00" end="652.00" probability="0.14736834213287367" route="r_22"/>
   <flow id="f_13_23" begin="600.00" end="652.00" probability="0.48992491789881004" route="r_23"/>
   <flow id="f_14_6" begin="650.00" end="702.00" probability="0.5046653929736514" route="r_6"/>
   <flow id="f_14_7" begin="650.00" end="702.00" probability="0.2034089874018133" route="r_7"/>
   <flow id="f_14_8" begin="650.00" end="702.00" probability="0.405447728998681" route="r_8"/>
   <flow id="f_14_9" begin="650.00" end="702.00" probability="0.3576263216819223" route="r_9"/>
   <flow id="f_14_10" begin="650.00" end="702.00" probability="0.3136769215481894" route="r_10"/>
   <flow id="f_14_11" begin="650.00" end="702.00" probability="0.4504401808103413" route="r_11"/>
   <flow id="f_14_12" begin="650.00" end="702.00" probability="0.19312193811083264" route="r_12"/>
   <flow id="f_14_13" begin="650.00" end="702.00" probability="0.466661389175394" route="r_13"/>
   <flow id="f_14_14" begin="650.00" end="702.00" probability="0.3573390031883788" route="r_14"/>
   <flow id="f_14_15" begin="650.00" end="702.00" probability="0.45719818165290793" route="r_15"/>
   <flow id="f_14_16" begin="650.00" end="702.00" probability="0.4356797277004818" route="r_16"/>
   <flow id="f_14_17" begin="650.00" end="702.00" probability="0.1961775256584624" route="r_17"/>
   <flow id="f_14_18" begin="650.00" end="702.00" probability="0.2313025436306721" route="r_18"/>
   <flow id="f_14_19" begin="650.00" end="702.00" probability="0.19359211512894517" route="r_19"/>
   <flow id="f_14_20" begin="650.00" end="702.00" probability="0.20180185776814968" route="r_20"/>
   <flow id="f_14_21" begin="650.00" end="702.00" probability="0.32840505787288127" route="r_21"/>
   <flow id="f_14_22" begin="650.00" end="702.00" probability="0.18356099775601703" route="r_22"/>
   <flow id="f_14_23" begin="650.00" end="702.00" probability="0.4363121516508521" route="r_23"/>
</routes>