<?xml version="1.0" encoding="UTF-8"?>

<!-- generated on 2024-07-16 18:36:14 by Eclipse SUMO netedit Version 1.17.0
-->

<routes xmlns:xsi="http://www.w3.org/2001/XMLSchema-instance" xsi:noNamespaceSchemaLocation="http://sumo.dlr.de/xsd/routes_file.xsd">
    <!-- Routes -->
    <route id="r_0" edges="A5B5 B5C5 C5D5 D5E5 E5F5"/>
    <route id="r_1" edges="G5F5 F5E5 E5D5 D5C5 C5B5"/>
    <route id="r_10" edges="C4C3 C3C2 C2C1"/>
    <route id="r_11" edges="C0C1 C1C2 C2C3"/>
    <route id="r_12" edges="D4D3 D3D2 D2D1"/>
    <route id="r_13" edges="D0D1 D1D2 D2D3"/>
    <route id="r_14" edges="E4E3 E3E2 E2E1"/>
    <route id="r_15" edges="E0E1 E1E2 E2E3"/>
    <route id="r_2" edges="C7C6 C6C5 C5C4"/>
    <route id="r_3" edges="C3C4 C4C5 C5C6"/>
    <route id="r_4" edges="D7D6 D6D5 D5D4"/>
    <route id="r_5" edges="D3D4 D4D5 D5D6"/>
    <route id="r_6" edges="E7E6 E6E5 E5E4"/>
    <route id="r_7" edges="E3E4 E4E5 E5E6"/>
    <route id="r_8" edges="A2B2 B2C2 C2D2 D2E2 E2F2"/>
    <route id="r_9" edges="G2F2 F2E2 E2D2 D2C2 C2B2"/>
	
   <flow id="f_0_0" begin="0.00" end="200.00" probability="0.5" route="r_0"/>
   <flow id="f_0_1" begin="0.00" end="200.00" probability="0.5" route="r_1"/>
   <flow id="f_0_2" begin="0.00" end="200.00" probability="0.2" route="r_2"/>
   <flow id="f_0_3" begin="0.00" end="200.00" probability="0.2" route="r_3"/>
   <flow id="f_0_4" begin="0.00" end="200.00" probability="0.2" route="r_4"/>
   <flow id="f_0_5" begin="0.00" end="200.00" probability="0.2" route="r_5"/>
   <flow id="f_0_6" begin="0.00" end="200.00" probability="0.2" route="r_6"/>
   <flow id="f_0_7" begin="0.00" end="200.00" probability="0.2" route="r_7"/>
   <flow id="f_0_8" begin="0.00" end="200.00" probability="0.2" route="r_8"/>
   <flow id="f_0_9" begin="0.00" end="200.00" probability="0.2" route="r_9"/>
   <flow id="f_0_10" begin="0.00" end="200.00" probability="0.4" route="r_10"/>
   <flow id="f_0_11" begin="0.00" end="200.00" probability="0.4" route="r_11"/>
   <flow id="f_0_12" begin="0.00" end="200.00" probability="0.4" route="r_12"/>
   <flow id="f_0_13" begin="0.00" end="200.00" probability="0.4" route="r_13"/>
   <flow id="f_0_14" begin="0.00" end="200.00" probability="0.4" route="r_14"/>
   <flow id="f_0_15" begin="0.00" end="200.00" probability="0.4" route="r_15"/>
   <flow id="f_1_0" begin="250.00" end="450.00" probability="0.5" route="r_0"/>
   <flow id="f_1_8" begin="250.00" end="295.00" probability="0.09781595568215048" route="r_8"/>
   <flow id="f_1_9" begin="250.00" end="295.00" probability="0.02692203922335884" route="r_9"/>
   <flow id="f_1_10" begin="250.00" end="295.00" probability="0.11671822145929728" route="r_10"/>
   <flow id="f_1_11" begin="250.00" end="295.00" probability="0.4078778588218909" route="r_11"/>
   <flow id="f_1_12" begin="250.00" end="295.00" probability="0.4657472578759219" route="r_12"/>
   <flow id="f_1_13" begin="250.00" end="295.00" probability="0.07695915597811709" route="r_13"/>
   <flow id="f_1_14" begin="250.00" end="295.00" probability="0.061766647045784384" route="r_14"/>
   <flow id="f_1_15" begin="250.00" end="295.00" probability="0.24366655592276812" route="r_15"/>
   <flow id="f_1_2" begin="250.00" end="295.00" probability="0.26599138276708656" route="r_2"/>
   <flow id="f_1_3" begin="250.00" end="295.00" probability="0.08129460008938803" route="r_3"/>
   <flow id="f_1_4" begin="250.00" end="295.00" probability="0.2386983257949229" route="r_4"/>
   <flow id="f_1_5" begin="250.00" end="295.00" probability="0.30775003929082895" route="r_5"/>
   <flow id="f_1_6" begin="250.00" end="295.00" probability="0.22171973747044885" route="r_6"/>
   <flow id="f_1_7" begin="250.00" end="295.00" probability="0.14994354216023306" route="r_7"/>
   <flow id="f_2_8" begin="300.00" end="345.00" probability="0.42018224838682056" route="r_8"/>
   <flow id="f_2_9" begin="300.00" end="345.00" probability="0.45502522652124383" route="r_9"/>
   <flow id="f_2_10" begin="300.00" end="345.00" probability="0.003034574020282732" route="r_10"/>
   <flow id="f_2_11" begin="300.00" end="345.00" probability="0.23446241040491442" route="r_11"/>
   <flow id="f_2_12" begin="300.00" end="345.00" probability="0.3127958492832345" route="r_12"/>
   <flow id="f_2_13" begin="300.00" end="345.00" probability="0.3087258461779368" route="r_13"/>
   <flow id="f_2_14" begin="300.00" end="345.00" probability="0.06944353920920521" route="r_14"/>
   <flow id="f_2_15" begin="300.00" end="345.00" probability="0.3117803283556302" route="r_15"/>
   <flow id="f_2_2" begin="300.00" end="345.00" probability="0.35536639016010263" route="r_2"/>
   <flow id="f_2_3" begin="300.00" end="345.00" probability="0.09396032983563343" route="r_3"/>
   <flow id="f_2_4" begin="300.00" end="345.00" probability="0.19665303118480926" route="r_4"/>
   <flow id="f_2_5" begin="300.00" end="345.00" probability="0.35174051946131046" route="r_5"/>
   <flow id="f_2_6" begin="300.00" end="345.00" probability="0.18335130652390066" route="r_6"/>
   <flow id="f_2_7" begin="300.00" end="345.00" probability="0.20581048320588635" route="r_7"/>
   <flow id="f_1_1" begin="350.00" end="550.00" probability="0.5" route="r_1"/>
   <flow id="f_3_8" begin="350.00" end="395.00" probability="0.19869180623215768" route="r_8"/>
   <flow id="f_3_9" begin="350.00" end="395.00" probability="0.33707224997566954" route="r_9"/>
   <flow id="f_3_10" begin="350.00" end="395.00" probability="0.28829835927107716" route="r_10"/>
   <flow id="f_3_11" begin="350.00" end="395.00" probability="0.3406185116360046" route="r_11"/>
   <flow id="f_3_12" begin="350.00" end="395.00" probability="0.07044248283182741" route="r_12"/>
   <flow id="f_3_13" begin="350.00" end="395.00" probability="0.17980286993763475" route="r_13"/>
   <flow id="f_3_14" begin="350.00" end="395.00" probability="0.30465161732287077" route="r_14"/>
   <flow id="f_3_15" begin="350.00" end="395.00" probability="0.06578704004966018" route="r_15"/>
   <flow id="f_3_2" begin="350.00" end="395.00" probability="0.2695771378681386" route="r_2"/>
   <flow id="f_3_3" begin="350.00" end="395.00" probability="0.12125223869830855" route="r_3"/>
   <flow id="f_3_4" begin="350.00" end="395.00" probability="0.10268584136220756" route="r_4"/>
   <flow id="f_3_5" begin="350.00" end="395.00" probability="0.09340883146808801" route="r_5"/>
   <flow id="f_3_6" begin="350.00" end="395.00" probability="0.23245727659441462" route="r_6"/>
   <flow id="f_3_7" begin="350.00" end="395.00" probability="0.29449833444064344" route="r_7"/>
   <flow id="f_4_8" begin="400.00" end="445.00" probability="0.16129627438942598" route="r_8"/>
   <flow id="f_4_9" begin="400.00" end="445.00" probability="0.44478674344521346" route="r_9"/>
   <flow id="f_4_10" begin="400.00" end="445.00" probability="0.1773206755065994" route="r_10"/>
   <flow id="f_4_11" begin="400.00" end="445.00" probability="0.3013594064804084" route="r_11"/>
   <flow id="f_4_12" begin="400.00" end="445.00" probability="0.2301416200553626" route="r_12"/>
   <flow id="f_4_13" begin="400.00" end="445.00" probability="0.41850794496628385" route="r_13"/>
   <flow id="f_4_14" begin="400.00" end="445.00" probability="0.21413566648847693" route="r_14"/>
   <flow id="f_4_15" begin="400.00" end="445.00" probability="0.01233121845542301" route="r_15"/>
   <flow id="f_4_2" begin="400.00" end="445.00" probability="0.04942972080971861" route="r_2"/>
   <flow id="f_4_3" begin="400.00" end="445.00" probability="0.22035447489565751" route="r_3"/>
   <flow id="f_4_4" begin="400.00" end="445.00" probability="0.35340531307217254" route="r_4"/>
   <flow id="f_4_5" begin="400.00" end="445.00" probability="0.210117666852227" route="r_5"/>
   <flow id="f_4_6" begin="400.00" end="445.00" probability="0.3477316276273339" route="r_6"/>
   <flow id="f_4_7" begin="400.00" end="445.00" probability="0.3089921118113639" route="r_7"/>
   <flow id="f_5_8" begin="450.00" end="495.00" probability="0.16900237163739273" route="r_8"/>
   <flow id="f_5_9" begin="450.00" end="495.00" probability="0.26088398142409697" route="r_9"/>
   <flow id="f_5_10" begin="450.00" end="495.00" probability="0.1444913971187529" route="r_10"/>
   <flow id="f_5_11" begin="450.00" end="495.00" probability="0.18054908329899996" route="r_11"/>
   <flow id="f_5_12" begin="450.00" end="495.00" probability="0.08888299705791691" route="r_12"/>
   <flow id="f_5_13" begin="450.00" end="495.00" probability="0.24921991424846246" route="r_13"/>
   <flow id="f_5_14" begin="450.00" end="495.00" probability="0.41838265539682634" route="r_14"/>
   <flow id="f_5_15" begin="450.00" end="495.00" probability="0.36803145237091467" route="r_15"/>
   <flow id="f_5_2" begin="450.00" end="495.00" probability="0.011496511186834757" route="r_2"/>
   <flow id="f_5_3" begin="450.00" end="495.00" probability="0.190741495700064" route="r_3"/>
   <flow id="f_5_4" begin="450.00" end="495.00" probability="0.14888183212205314" route="r_4"/>
   <flow id="f_5_5" begin="450.00" end="495.00" probability="0.024267401094204194" route="r_5"/>
   <flow id="f_5_6" begin="450.00" end="495.00" probability="0.20739226572326622" route="r_6"/>
   <flow id="f_5_7" begin="450.00" end="495.00" probability="0.30084135104414217" route="r_7"/>
   <flow id="f_6_8" begin="500.00" end="545.00" probability="0.4713797031185895" route="r_8"/>
   <flow id="f_6_9" begin="500.00" end="545.00" probability="0.09912119696522007" route="r_9"/>
   <flow id="f_6_10" begin="500.00" end="545.00" probability="0.14771091874498402" route="r_10"/>
   <flow id="f_6_11" begin="500.00" end="545.00" probability="0.1208544980490866" route="r_11"/>
   <flow id="f_6_12" begin="500.00" end="545.00" probability="0.14434645608165084" route="r_12"/>
   <flow id="f_6_13" begin="500.00" end="545.00" probability="0.18924399662589972" route="r_13"/>
   <flow id="f_6_14" begin="500.00" end="545.00" probability="0.31459481608093265" route="r_14"/>
   <flow id="f_6_15" begin="500.00" end="545.00" probability="0.3519858087405929" route="r_15"/>
   <flow id="f_6_2" begin="500.00" end="545.00" probability="0.26986691133701834" route="r_2"/>
   <flow id="f_6_3" begin="500.00" end="545.00" probability="0.13004779017208865" route="r_3"/>
   <flow id="f_6_4" begin="500.00" end="545.00" probability="0.025245904290671556" route="r_4"/>
   <flow id="f_6_5" begin="500.00" end="545.00" probability="0.3769469388038749" route="r_5"/>
   <flow id="f_6_6" begin="500.00" end="545.00" probability="0.22450838507317017" route="r_6"/>
   <flow id="f_6_7" begin="500.00" end="545.00" probability="0.2813744366833807" route="r_7"/>
   <flow id="f_7_8" begin="550.00" end="595.00" probability="0.28815650765928635" route="r_8"/>
   <flow id="f_7_9" begin="550.00" end="595.00" probability="0.12114947956629135" route="r_9"/>
   <flow id="f_7_10" begin="550.00" end="595.00" probability="0.4791238980644731" route="r_10"/>
   <flow id="f_7_11" begin="550.00" end="595.00" probability="0.0009009476257307303" route="r_11"/>
   <flow id="f_7_12" begin="550.00" end="595.00" probability="0.18745303057294682" route="r_12"/>
   <flow id="f_7_13" begin="550.00" end="595.00" probability="0.44657681583349756" route="r_13"/>
   <flow id="f_7_14" begin="550.00" end="595.00" probability="0.22239650462292232" route="r_14"/>
   <flow id="f_7_15" begin="550.00" end="595.00" probability="0.35378676608443316" route="r_15"/>
   <flow id="f_7_2" begin="550.00" end="595.00" probability="0.07490686093651494" route="r_2"/>
   <flow id="f_7_3" begin="550.00" end="595.00" probability="0.34002734666090956" route="r_3"/>
   <flow id="f_7_4" begin="550.00" end="595.00" probability="0.09705377314597481" route="r_4"/>
   <flow id="f_7_5" begin="550.00" end="595.00" probability="0.15798036129620996" route="r_5"/>
   <flow id="f_7_6" begin="550.00" end="595.00" probability="0.3225828406864547" route="r_6"/>
   <flow id="f_7_7" begin="550.00" end="595.00" probability="0.05401995311543689" route="r_7"/>
   <flow id="f_8_8" begin="600.00" end="645.00" probability="0.01005307370493072" route="r_8"/>
   <flow id="f_8_9" begin="600.00" end="645.00" probability="0.07634040646207177" route="r_9"/>
   <flow id="f_8_10" begin="600.00" end="645.00" probability="0.12095513029035572" route="r_10"/>
   <flow id="f_8_11" begin="600.00" end="645.00" probability="0.22913876800821162" route="r_11"/>
   <flow id="f_8_12" begin="600.00" end="645.00" probability="0.44527794149482824" route="r_12"/>
   <flow id="f_8_13" begin="600.00" end="645.00" probability="0.2341848232495302" route="r_13"/>
   <flow id="f_8_14" begin="600.00" end="645.00" probability="0.3702670979917294" route="r_14"/>
   <flow id="f_8_15" begin="600.00" end="645.00" probability="0.16919373324730638" route="r_15"/>
   <flow id="f_8_2" begin="600.00" end="645.00" probability="0.12300982553165235" route="r_2"/>
   <flow id="f_8_3" begin="600.00" end="645.00" probability="0.12414715761153504" route="r_3"/>
   <flow id="f_8_4" begin="600.00" end="645.00" probability="0.19705057124990671" route="r_4"/>
   <flow id="f_8_5" begin="600.00" end="645.00" probability="0.19278104561646942" route="r_5"/>
   <flow id="f_8_6" begin="600.00" end="645.00" probability="0.04407468064828199" route="r_6"/>
   <flow id="f_8_7" begin="600.00" end="645.00" probability="0.15010748636129292" route="r_7"/>
</routes>