<?xml version="1.0" encoding="UTF-8"?>

<!-- generated on 2024-03-21 12:30:08 by Eclipse SUMO netedit Version 1.17.0
<configuration xmlns:xsi="http://www.w3.org/2001/XMLSchema-instance" xsi:noNamespaceSchemaLocation="http://sumo.dlr.de/xsd/netconvertConfiguration.xsd">

    <input>
        <sumo-net-file value="D:\inż\double_pararell_small\double_500_actuated.net.xml"/>
    </input>

    <output>
        <output-file value="D:\inż\double_pararell_small\double_500_actuated.net.xml"/>
    </output>

    <processing>
        <geometry.min-radius.fix.railways value="false"/>
        <geometry.max-grade.fix value="false"/>
        <offset.disable-normalization value="true"/>
        <lefthand value="0"/>
    </processing>

    <junctions>
        <no-turnarounds value="true"/>
        <junctions.corner-detail value="5"/>
        <junctions.limit-turn-speed value="5.50"/>
        <rectangular-lane-cut value="0"/>
    </junctions>

    <pedestrian>
        <walkingareas value="0"/>
    </pedestrian>

</configuration>
-->

<net version="1.16" junctionCornerDetail="5" limitTurnSpeed="5.50" xmlns:xsi="http://www.w3.org/2001/XMLSchema-instance" xsi:noNamespaceSchemaLocation="http://sumo.dlr.de/xsd/net_file.xsd">

    <location netOffset="0.00,0.00" convBoundary="0.00,1000.00,4500.00,4500.00" origBoundary="0.00,0.00,4500.00,4500.00" projParameter="!"/>

    <edge id=":B4_0" function="internal">
        <lane id=":B4_0_0" index="0" speed="13.89" length="3.00" shape="498.50,1998.40 501.50,1998.40"/>
    </edge>
    <edge id=":B7_0" function="internal">
        <lane id=":B7_0_0" index="0" speed="13.89" length="3.00" shape="498.50,3498.40 501.50,3498.40"/>
    </edge>
    <edge id=":C3_0" function="internal">
        <lane id=":C3_0_0" index="0" speed="13.89" length="3.00" shape="1001.60,1498.50 1001.60,1501.50"/>
    </edge>
    <edge id=":C4_0" function="internal">
        <lane id=":C4_0_0" index="0" speed="13.89" length="14.40" shape="998.40,2007.20 998.40,1992.80"/>
    </edge>
    <edge id=":C4_1" function="internal">
        <lane id=":C4_1_0" index="0" speed="13.89" length="14.40" shape="1007.20,2001.60 992.80,2001.60"/>
    </edge>
    <edge id=":C4_2" function="internal">
        <lane id=":C4_2_0" index="0" speed="13.89" length="14.40" shape="1001.60,1992.80 1001.60,2007.20"/>
    </edge>
    <edge id=":C4_3" function="internal">
        <lane id=":C4_3_0" index="0" speed="13.89" length="14.40" shape="992.80,1998.40 1007.20,1998.40"/>
    </edge>
    <edge id=":C5_0" function="internal">
        <lane id=":C5_0_0" index="0" speed="13.89" length="0.10" shape="998.40,2500.00 998.40,2500.00"/>
    </edge>
    <edge id=":C6_0" function="internal">
        <lane id=":C6_0_0" index="0" speed="13.89" length="0.10" shape="1001.60,3000.00 1001.60,3000.00"/>
    </edge>
    <edge id=":C7_0" function="internal">
        <lane id=":C7_0_0" index="0" speed="13.89" length="14.40" shape="998.40,3507.20 998.40,3492.80"/>
    </edge>
    <edge id=":C7_1" function="internal">
        <lane id=":C7_1_0" index="0" speed="13.89" length="14.40" shape="1007.20,3501.60 992.80,3501.60"/>
    </edge>
    <edge id=":C7_2" function="internal">
        <lane id=":C7_2_0" index="0" speed="13.89" length="14.40" shape="1001.60,3492.80 1001.60,3507.20"/>
    </edge>
    <edge id=":C7_3" function="internal">
        <lane id=":C7_3_0" index="0" speed="13.89" length="14.40" shape="992.80,3498.40 1007.20,3498.40"/>
    </edge>
    <edge id=":C8_0" function="internal">
        <lane id=":C8_0_0" index="0" speed="13.89" length="3.00" shape="998.40,4001.50 998.40,3998.50"/>
    </edge>
    <edge id=":D3_0" function="internal">
        <lane id=":D3_0_0" index="0" speed="13.89" length="3.00" shape="1501.60,1498.50 1501.60,1501.50"/>
    </edge>
    <edge id=":D4_0" function="internal">
        <lane id=":D4_0_0" index="0" speed="13.89" length="14.40" shape="1498.40,2007.20 1498.40,1992.80"/>
    </edge>
    <edge id=":D4_1" function="internal">
        <lane id=":D4_1_0" index="0" speed="13.89" length="14.40" shape="1507.20,2001.60 1492.80,2001.60"/>
    </edge>
    <edge id=":D4_2" function="internal">
        <lane id=":D4_2_0" index="0" speed="13.89" length="14.40" shape="1501.60,1992.80 1501.60,2007.20"/>
    </edge>
    <edge id=":D4_3" function="internal">
        <lane id=":D4_3_0" index="0" speed="13.89" length="14.40" shape="1492.80,1998.40 1507.20,1998.40"/>
    </edge>
    <edge id=":D5_0" function="internal">
        <lane id=":D5_0_0" index="0" speed="13.89" length="0.10" shape="1498.40,2500.00 1498.40,2500.00"/>
    </edge>
    <edge id=":D6_0" function="internal">
        <lane id=":D6_0_0" index="0" speed="13.89" length="0.10" shape="1501.60,3000.00 1501.60,3000.00"/>
    </edge>
    <edge id=":D7_0" function="internal">
        <lane id=":D7_0_0" index="0" speed="13.89" length="14.40" shape="1498.40,3507.20 1498.40,3492.80"/>
    </edge>
    <edge id=":D7_1" function="internal">
        <lane id=":D7_1_0" index="0" speed="13.89" length="14.40" shape="1507.20,3501.60 1492.80,3501.60"/>
    </edge>
    <edge id=":D7_2" function="internal">
        <lane id=":D7_2_0" index="0" speed="13.89" length="14.40" shape="1501.60,3492.80 1501.60,3507.20"/>
    </edge>
    <edge id=":D7_3" function="internal">
        <lane id=":D7_3_0" index="0" speed="13.89" length="14.40" shape="1492.80,3498.40 1507.20,3498.40"/>
    </edge>
    <edge id=":D8_0" function="internal">
        <lane id=":D8_0_0" index="0" speed="13.89" length="3.00" shape="1498.40,4001.50 1498.40,3998.50"/>
    </edge>
    <edge id=":E4_0" function="internal">
        <lane id=":E4_0_0" index="0" speed="13.89" length="0.10" shape="2000.00,2001.60 2000.00,2001.60"/>
    </edge>
    <edge id=":E7_0" function="internal">
        <lane id=":E7_0_0" index="0" speed="13.89" length="0.10" shape="2000.00,3501.60 2000.00,3501.60"/>
    </edge>
    <edge id=":F4_0" function="internal">
        <lane id=":F4_0_0" index="0" speed="13.89" length="0.10" shape="2500.00,1998.40 2500.00,1998.40"/>
    </edge>
    <edge id=":F7_0" function="internal">
        <lane id=":F7_0_0" index="0" speed="13.89" length="0.10" shape="2500.00,3498.40 2500.00,3498.40"/>
    </edge>
    <edge id=":G3_0" function="internal">
        <lane id=":G3_0_0" index="0" speed="13.89" length="3.00" shape="3001.60,1498.50 3001.60,1501.50"/>
    </edge>
    <edge id=":G4_0" function="internal">
        <lane id=":G4_0_0" index="0" speed="13.89" length="14.40" shape="2998.40,2007.20 2998.40,1992.80"/>
    </edge>
    <edge id=":G4_1" function="internal">
        <lane id=":G4_1_0" index="0" speed="13.89" length="14.40" shape="3007.20,2001.60 2992.80,2001.60"/>
    </edge>
    <edge id=":G4_2" function="internal">
        <lane id=":G4_2_0" index="0" speed="13.89" length="14.40" shape="3001.60,1992.80 3001.60,2007.20"/>
    </edge>
    <edge id=":G4_3" function="internal">
        <lane id=":G4_3_0" index="0" speed="13.89" length="14.40" shape="2992.80,1998.40 3007.20,1998.40"/>
    </edge>
    <edge id=":G5_0" function="internal">
        <lane id=":G5_0_0" index="0" speed="13.89" length="0.10" shape="2998.40,2500.00 2998.40,2500.00"/>
    </edge>
    <edge id=":G6_0" function="internal">
        <lane id=":G6_0_0" index="0" speed="13.89" length="0.10" shape="3001.60,3000.00 3001.60,3000.00"/>
    </edge>
    <edge id=":G7_0" function="internal">
        <lane id=":G7_0_0" index="0" speed="13.89" length="14.40" shape="2998.40,3507.20 2998.40,3492.80"/>
    </edge>
    <edge id=":G7_1" function="internal">
        <lane id=":G7_1_0" index="0" speed="13.89" length="14.40" shape="3007.20,3501.60 2992.80,3501.60"/>
    </edge>
    <edge id=":G7_2" function="internal">
        <lane id=":G7_2_0" index="0" speed="13.89" length="14.40" shape="3001.60,3492.80 3001.60,3507.20"/>
    </edge>
    <edge id=":G7_3" function="internal">
        <lane id=":G7_3_0" index="0" speed="13.89" length="14.40" shape="2992.80,3498.40 3007.20,3498.40"/>
    </edge>
    <edge id=":G8_0" function="internal">
        <lane id=":G8_0_0" index="0" speed="13.89" length="3.00" shape="2998.40,4001.50 2998.40,3998.50"/>
    </edge>
    <edge id=":H3_0" function="internal">
        <lane id=":H3_0_0" index="0" speed="13.89" length="3.00" shape="3501.60,1498.50 3501.60,1501.50"/>
    </edge>
    <edge id=":H4_0" function="internal">
        <lane id=":H4_0_0" index="0" speed="13.89" length="14.40" shape="3498.40,2007.20 3498.40,1992.80"/>
    </edge>
    <edge id=":H4_1" function="internal">
        <lane id=":H4_1_0" index="0" speed="13.89" length="14.40" shape="3507.20,2001.60 3492.80,2001.60"/>
    </edge>
    <edge id=":H4_2" function="internal">
        <lane id=":H4_2_0" index="0" speed="13.89" length="14.40" shape="3501.60,1992.80 3501.60,2007.20"/>
    </edge>
    <edge id=":H4_3" function="internal">
        <lane id=":H4_3_0" index="0" speed="13.89" length="14.40" shape="3492.80,1998.40 3507.20,1998.40"/>
    </edge>
    <edge id=":H5_0" function="internal">
        <lane id=":H5_0_0" index="0" speed="13.89" length="0.10" shape="3498.40,2500.00 3498.40,2500.00"/>
    </edge>
    <edge id=":H6_0" function="internal">
        <lane id=":H6_0_0" index="0" speed="13.89" length="0.10" shape="3501.60,3000.00 3501.60,3000.00"/>
    </edge>
    <edge id=":H7_0" function="internal">
        <lane id=":H7_0_0" index="0" speed="13.89" length="14.40" shape="3498.40,3507.20 3498.40,3492.80"/>
    </edge>
    <edge id=":H7_1" function="internal">
        <lane id=":H7_1_0" index="0" speed="13.89" length="14.40" shape="3507.20,3501.60 3492.80,3501.60"/>
    </edge>
    <edge id=":H7_2" function="internal">
        <lane id=":H7_2_0" index="0" speed="13.89" length="14.40" shape="3501.60,3492.80 3501.60,3507.20"/>
    </edge>
    <edge id=":H7_3" function="internal">
        <lane id=":H7_3_0" index="0" speed="13.89" length="14.40" shape="3492.80,3498.40 3507.20,3498.40"/>
    </edge>
    <edge id=":H8_0" function="internal">
        <lane id=":H8_0_0" index="0" speed="13.89" length="3.00" shape="3498.40,4001.50 3498.40,3998.50"/>
    </edge>
    <edge id=":I4_0" function="internal">
        <lane id=":I4_0_0" index="0" speed="13.89" length="3.00" shape="4001.50,2001.60 3998.50,2001.60"/>
    </edge>
    <edge id=":I7_0" function="internal">
        <lane id=":I7_0_0" index="0" speed="13.89" length="3.00" shape="4001.50,3501.60 3998.50,3501.60"/>
    </edge>

    <edge id="A4B4" from="A4" to="B4" priority="-1">
        <lane id="A4B4_0" index="0" speed="13.89" length="498.50" shape="0.00,1998.40 498.50,1998.40"/>
    </edge>
    <edge id="A7B7" from="A7" to="B7" priority="-1">
        <lane id="A7B7_0" index="0" speed="13.89" length="498.50" shape="0.00,3498.40 498.50,3498.40"/>
    </edge>
    <edge id="B4C4" from="B4" to="C4" priority="-1">
        <lane id="B4C4_0" index="0" speed="13.89" length="491.30" shape="501.50,1998.40 992.80,1998.40"/>
    </edge>
    <edge id="B7C7" from="B7" to="C7" priority="-1">
        <lane id="B7C7_0" index="0" speed="13.89" length="491.30" shape="501.50,3498.40 992.80,3498.40"/>
    </edge>
    <edge id="C2C3" from="C2" to="C3" priority="-1">
        <lane id="C2C3_0" index="0" speed="13.89" length="498.50" shape="1001.60,1000.00 1001.60,1498.50"/>
    </edge>
    <edge id="C3C4" from="C3" to="C4" priority="-1">
        <lane id="C3C4_0" index="0" speed="13.89" length="491.30" shape="1001.60,1501.50 1001.60,1992.80"/>
    </edge>
    <edge id="C4B4" from="C4" to="B4" priority="-1">
        <lane id="C4B4_0" index="0" speed="13.89" length="491.30" shape="992.80,2001.60 501.50,2001.60"/>
    </edge>
    <edge id="C4C3" from="C4" to="C3" priority="-1">
        <lane id="C4C3_0" index="0" speed="13.89" length="491.30" shape="998.40,1992.80 998.40,1501.50"/>
    </edge>
    <edge id="C4C5" from="C4" to="C5" priority="-1">
        <lane id="C4C5_0" index="0" speed="13.89" length="492.80" shape="1001.60,2007.20 1001.60,2500.00"/>
    </edge>
    <edge id="C4D4" from="C4" to="D4" priority="-1">
        <lane id="C4D4_0" index="0" speed="13.89" length="485.60" shape="1007.20,1998.40 1492.80,1998.40"/>
    </edge>
    <edge id="C5C4" from="C5" to="C4" priority="-1">
        <lane id="C5C4_0" index="0" speed="13.89" length="492.80" shape="998.40,2500.00 998.40,2007.20"/>
    </edge>
    <edge id="C5C6" from="C5" to="C6" priority="-1">
        <lane id="C5C6_0" index="0" speed="13.89" length="500.00" shape="1001.60,2500.00 1001.60,3000.00"/>
    </edge>
    <edge id="C6C5" from="C6" to="C5" priority="-1">
        <lane id="C6C5_0" index="0" speed="13.89" length="500.00" shape="998.40,3000.00 998.40,2500.00"/>
    </edge>
    <edge id="C6C7" from="C6" to="C7" priority="-1">
        <lane id="C6C7_0" index="0" speed="13.89" length="492.80" shape="1001.60,3000.00 1001.60,3492.80"/>
    </edge>
    <edge id="C7B7" from="C7" to="B7" priority="-1">
        <lane id="C7B7_0" index="0" speed="13.89" length="491.30" shape="992.80,3501.60 501.50,3501.60"/>
    </edge>
    <edge id="C7C6" from="C7" to="C6" priority="-1">
        <lane id="C7C6_0" index="0" speed="13.89" length="492.80" shape="998.40,3492.80 998.40,3000.00"/>
    </edge>
    <edge id="C7C8" from="C7" to="C8" priority="-1">
        <lane id="C7C8_0" index="0" speed="13.89" length="491.30" shape="1001.60,3507.20 1001.60,3998.50"/>
    </edge>
    <edge id="C7D7" from="C7" to="D7" priority="-1">
        <lane id="C7D7_0" index="0" speed="13.89" length="485.60" shape="1007.20,3498.40 1492.80,3498.40"/>
    </edge>
    <edge id="C8C7" from="C8" to="C7" priority="-1">
        <lane id="C8C7_0" index="0" speed="13.89" length="491.30" shape="998.40,3998.50 998.40,3507.20"/>
    </edge>
    <edge id="C9C8" from="C9" to="C8" priority="-1">
        <lane id="C9C8_0" index="0" speed="13.89" length="498.50" shape="998.40,4500.00 998.40,4001.50"/>
    </edge>
    <edge id="D2D3" from="D2" to="D3" priority="-1">
        <lane id="D2D3_0" index="0" speed="13.89" length="498.50" shape="1501.60,1000.00 1501.60,1498.50"/>
    </edge>
    <edge id="D3D4" from="D3" to="D4" priority="-1">
        <lane id="D3D4_0" index="0" speed="13.89" length="491.30" shape="1501.60,1501.50 1501.60,1992.80"/>
    </edge>
    <edge id="D4C4" from="D4" to="C4" priority="-1">
        <lane id="D4C4_0" index="0" speed="13.89" length="485.60" shape="1492.80,2001.60 1007.20,2001.60"/>
    </edge>
    <edge id="D4D3" from="D4" to="D3" priority="-1">
        <lane id="D4D3_0" index="0" speed="13.89" length="491.30" shape="1498.40,1992.80 1498.40,1501.50"/>
    </edge>
    <edge id="D4D5" from="D4" to="D5" priority="-1">
        <lane id="D4D5_0" index="0" speed="13.89" length="492.80" shape="1501.60,2007.20 1501.60,2500.00"/>
    </edge>
    <edge id="D4E4" from="D4" to="E4" priority="-1">
        <lane id="D4E4_0" index="0" speed="13.89" length="492.80" shape="1507.20,1998.40 2000.00,1998.40"/>
    </edge>
    <edge id="D5D4" from="D5" to="D4" priority="-1">
        <lane id="D5D4_0" index="0" speed="13.89" length="492.80" shape="1498.40,2500.00 1498.40,2007.20"/>
    </edge>
    <edge id="D5D6" from="D5" to="D6" priority="-1">
        <lane id="D5D6_0" index="0" speed="13.89" length="500.00" shape="1501.60,2500.00 1501.60,3000.00"/>
    </edge>
    <edge id="D6D5" from="D6" to="D5" priority="-1">
        <lane id="D6D5_0" index="0" speed="13.89" length="500.00" shape="1498.40,3000.00 1498.40,2500.00"/>
    </edge>
    <edge id="D6D7" from="D6" to="D7" priority="-1">
        <lane id="D6D7_0" index="0" speed="13.89" length="492.80" shape="1501.60,3000.00 1501.60,3492.80"/>
    </edge>
    <edge id="D7C7" from="D7" to="C7" priority="-1">
        <lane id="D7C7_0" index="0" speed="13.89" length="485.60" shape="1492.80,3501.60 1007.20,3501.60"/>
    </edge>
    <edge id="D7D6" from="D7" to="D6" priority="-1">
        <lane id="D7D6_0" index="0" speed="13.89" length="492.80" shape="1498.40,3492.80 1498.40,3000.00"/>
    </edge>
    <edge id="D7D8" from="D7" to="D8" priority="-1">
        <lane id="D7D8_0" index="0" speed="13.89" length="491.30" shape="1501.60,3507.20 1501.60,3998.50"/>
    </edge>
    <edge id="D7E7" from="D7" to="E7" priority="-1">
        <lane id="D7E7_0" index="0" speed="13.89" length="492.80" shape="1507.20,3498.40 2000.00,3498.40"/>
    </edge>
    <edge id="D8D7" from="D8" to="D7" priority="-1">
        <lane id="D8D7_0" index="0" speed="13.89" length="491.30" shape="1498.40,3998.50 1498.40,3507.20"/>
    </edge>
    <edge id="D9D8" from="D9" to="D8" priority="-1">
        <lane id="D9D8_0" index="0" speed="13.89" length="498.50" shape="1498.40,4500.00 1498.40,4001.50"/>
    </edge>
    <edge id="E4D4" from="E4" to="D4" priority="-1">
        <lane id="E4D4_0" index="0" speed="13.89" length="492.80" shape="2000.00,2001.60 1507.20,2001.60"/>
    </edge>
    <edge id="E4F4" from="E4" to="F4" priority="-1">
        <lane id="E4F4_0" index="0" speed="13.89" length="500.00" shape="2000.00,1998.40 2500.00,1998.40"/>
    </edge>
    <edge id="E7D7" from="E7" to="D7" priority="-1">
        <lane id="E7D7_0" index="0" speed="13.89" length="492.80" shape="2000.00,3501.60 1507.20,3501.60"/>
    </edge>
    <edge id="E7F7" from="E7" to="F7" priority="-1">
        <lane id="E7F7_0" index="0" speed="13.89" length="500.00" shape="2000.00,3498.40 2500.00,3498.40"/>
    </edge>
    <edge id="F4E4" from="F4" to="E4" priority="-1">
        <lane id="F4E4_0" index="0" speed="13.89" length="500.00" shape="2500.00,2001.60 2000.00,2001.60"/>
    </edge>
    <edge id="F4G4" from="F4" to="G4" priority="-1">
        <lane id="F4G4_0" index="0" speed="13.89" length="492.80" shape="2500.00,1998.40 2992.80,1998.40"/>
    </edge>
    <edge id="F7E7" from="F7" to="E7" priority="-1">
        <lane id="F7E7_0" index="0" speed="13.89" length="500.00" shape="2500.00,3501.60 2000.00,3501.60"/>
    </edge>
    <edge id="F7G7" from="F7" to="G7" priority="-1">
        <lane id="F7G7_0" index="0" speed="13.89" length="492.80" shape="2500.00,3498.40 2992.80,3498.40"/>
    </edge>
    <edge id="G2G3" from="G2" to="G3" priority="-1">
        <lane id="G2G3_0" index="0" speed="13.89" length="498.50" shape="3001.60,1000.00 3001.60,1498.50"/>
    </edge>
    <edge id="G3G4" from="G3" to="G4" priority="-1">
        <lane id="G3G4_0" index="0" speed="13.89" length="491.30" shape="3001.60,1501.50 3001.60,1992.80"/>
    </edge>
    <edge id="G4F4" from="G4" to="F4" priority="-1">
        <lane id="G4F4_0" index="0" speed="13.89" length="492.80" shape="2992.80,2001.60 2500.00,2001.60"/>
    </edge>
    <edge id="G4G3" from="G4" to="G3" priority="-1">
        <lane id="G4G3_0" index="0" speed="13.89" length="491.30" shape="2998.40,1992.80 2998.40,1501.50"/>
    </edge>
    <edge id="G4G5" from="G4" to="G5" priority="-1">
        <lane id="G4G5_0" index="0" speed="13.89" length="492.80" shape="3001.60,2007.20 3001.60,2500.00"/>
    </edge>
    <edge id="G4H4" from="G4" to="H4" priority="-1">
        <lane id="G4H4_0" index="0" speed="13.89" length="485.60" shape="3007.20,1998.40 3492.80,1998.40"/>
    </edge>
    <edge id="G5G4" from="G5" to="G4" priority="-1">
        <lane id="G5G4_0" index="0" speed="13.89" length="492.80" shape="2998.40,2500.00 2998.40,2007.20"/>
    </edge>
    <edge id="G5G6" from="G5" to="G6" priority="-1">
        <lane id="G5G6_0" index="0" speed="13.89" length="500.00" shape="3001.60,2500.00 3001.60,3000.00"/>
    </edge>
    <edge id="G6G5" from="G6" to="G5" priority="-1">
        <lane id="G6G5_0" index="0" speed="13.89" length="500.00" shape="2998.40,3000.00 2998.40,2500.00"/>
    </edge>
    <edge id="G6G7" from="G6" to="G7" priority="-1">
        <lane id="G6G7_0" index="0" speed="13.89" length="492.80" shape="3001.60,3000.00 3001.60,3492.80"/>
    </edge>
    <edge id="G7F7" from="G7" to="F7" priority="-1">
        <lane id="G7F7_0" index="0" speed="13.89" length="492.80" shape="2992.80,3501.60 2500.00,3501.60"/>
    </edge>
    <edge id="G7G6" from="G7" to="G6" priority="-1">
        <lane id="G7G6_0" index="0" speed="13.89" length="492.80" shape="2998.40,3492.80 2998.40,3000.00"/>
    </edge>
    <edge id="G7G8" from="G7" to="G8" priority="-1">
        <lane id="G7G8_0" index="0" speed="13.89" length="491.30" shape="3001.60,3507.20 3001.60,3998.50"/>
    </edge>
    <edge id="G7H7" from="G7" to="H7" priority="-1">
        <lane id="G7H7_0" index="0" speed="13.89" length="485.60" shape="3007.20,3498.40 3492.80,3498.40"/>
    </edge>
    <edge id="G8G7" from="G8" to="G7" priority="-1">
        <lane id="G8G7_0" index="0" speed="13.89" length="491.30" shape="2998.40,3998.50 2998.40,3507.20"/>
    </edge>
    <edge id="G9G8" from="G9" to="G8" priority="-1">
        <lane id="G9G8_0" index="0" speed="13.89" length="498.50" shape="2998.40,4500.00 2998.40,4001.50"/>
    </edge>
    <edge id="H2H3" from="H2" to="H3" priority="-1">
        <lane id="H2H3_0" index="0" speed="13.89" length="498.50" shape="3501.60,1000.00 3501.60,1498.50"/>
    </edge>
    <edge id="H3H4" from="H3" to="H4" priority="-1">
        <lane id="H3H4_0" index="0" speed="13.89" length="491.30" shape="3501.60,1501.50 3501.60,1992.80"/>
    </edge>
    <edge id="H4G4" from="H4" to="G4" priority="-1">
        <lane id="H4G4_0" index="0" speed="13.89" length="485.60" shape="3492.80,2001.60 3007.20,2001.60"/>
    </edge>
    <edge id="H4H3" from="H4" to="H3" priority="-1">
        <lane id="H4H3_0" index="0" speed="13.89" length="491.30" shape="3498.40,1992.80 3498.40,1501.50"/>
    </edge>
    <edge id="H4H5" from="H4" to="H5" priority="-1">
        <lane id="H4H5_0" index="0" speed="13.89" length="492.80" shape="3501.60,2007.20 3501.60,2500.00"/>
    </edge>
    <edge id="H4I4" from="H4" to="I4" priority="-1">
        <lane id="H4I4_0" index="0" speed="13.89" length="491.30" shape="3507.20,1998.40 3998.50,1998.40"/>
    </edge>
    <edge id="H5H4" from="H5" to="H4" priority="-1">
        <lane id="H5H4_0" index="0" speed="13.89" length="492.80" shape="3498.40,2500.00 3498.40,2007.20"/>
    </edge>
    <edge id="H5H6" from="H5" to="H6" priority="-1">
        <lane id="H5H6_0" index="0" speed="13.89" length="500.00" shape="3501.60,2500.00 3501.60,3000.00"/>
    </edge>
    <edge id="H6H5" from="H6" to="H5" priority="-1">
        <lane id="H6H5_0" index="0" speed="13.89" length="500.00" shape="3498.40,3000.00 3498.40,2500.00"/>
    </edge>
    <edge id="H6H7" from="H6" to="H7" priority="-1">
        <lane id="H6H7_0" index="0" speed="13.89" length="492.80" shape="3501.60,3000.00 3501.60,3492.80"/>
    </edge>
    <edge id="H7G7" from="H7" to="G7" priority="-1">
        <lane id="H7G7_0" index="0" speed="13.89" length="485.60" shape="3492.80,3501.60 3007.20,3501.60"/>
    </edge>
    <edge id="H7H6" from="H7" to="H6" priority="-1">
        <lane id="H7H6_0" index="0" speed="13.89" length="492.80" shape="3498.40,3492.80 3498.40,3000.00"/>
    </edge>
    <edge id="H7H8" from="H7" to="H8" priority="-1">
        <lane id="H7H8_0" index="0" speed="13.89" length="491.30" shape="3501.60,3507.20 3501.60,3998.50"/>
    </edge>
    <edge id="H7I7" from="H7" to="I7" priority="-1">
        <lane id="H7I7_0" index="0" speed="13.89" length="491.30" shape="3507.20,3498.40 3998.50,3498.40"/>
    </edge>
    <edge id="H8H7" from="H8" to="H7" priority="-1">
        <lane id="H8H7_0" index="0" speed="13.89" length="491.30" shape="3498.40,3998.50 3498.40,3507.20"/>
    </edge>
    <edge id="H9H8" from="H9" to="H8" priority="-1">
        <lane id="H9H8_0" index="0" speed="13.89" length="498.50" shape="3498.40,4500.00 3498.40,4001.50"/>
    </edge>
    <edge id="I4H4" from="I4" to="H4" priority="-1">
        <lane id="I4H4_0" index="0" speed="13.89" length="491.30" shape="3998.50,2001.60 3507.20,2001.60"/>
    </edge>
    <edge id="I7H7" from="I7" to="H7" priority="-1">
        <lane id="I7H7_0" index="0" speed="13.89" length="491.30" shape="3998.50,3501.60 3507.20,3501.60"/>
    </edge>
    <edge id="J4I4" from="J4" to="I4" priority="-1">
        <lane id="J4I4_0" index="0" speed="13.89" length="498.50" shape="4500.00,2001.60 4001.50,2001.60"/>
    </edge>
    <edge id="J7I7" from="J7" to="I7" priority="-1">
        <lane id="J7I7_0" index="0" speed="13.89" length="498.50" shape="4500.00,3501.60 4001.50,3501.60"/>
    </edge>

    <tlLogic id="B4" type="static" programID="0" offset="0">
        <phase duration="62" state="G"/>
        <phase duration="3"  state="y"/>
        <phase duration="20"  state="r"/>
    </tlLogic>
    <tlLogic id="B7" type="static" programID="0" offset="0">
        <phase duration="62" state="G"/>
        <phase duration="3"  state="y"/>
        <phase duration="20"  state="r"/>
    </tlLogic>
    <tlLogic id="C3" type="static" programID="0" offset="0">
        <phase duration="62" state="G"/>
        <phase duration="3"  state="y"/>
        <phase duration="20"  state="r"/>
    </tlLogic>
    <tlLogic id="C4" type="actuated" programID="0" offset="0">
        <phase duration="42" state="GrGr" minDur="5" maxDur="50"/>
        <phase duration="3"  state="yryr"/>
        <phase duration="42" state="rGrG" minDur="5" maxDur="50"/>
        <phase duration="3"  state="ryry"/>
    </tlLogic>
    <tlLogic id="C5" type="static" programID="0" offset="0">
        <phase duration="62" state="G"/>
        <phase duration="3"  state="y"/>
        <phase duration="20"  state="r"/>
    </tlLogic>
    <tlLogic id="C6" type="static" programID="0" offset="0">
        <phase duration="62" state="G"/>
        <phase duration="3"  state="y"/>
        <phase duration="20"  state="r"/>
    </tlLogic>
    <tlLogic id="C7" type="actuated" programID="0" offset="0">
        <phase duration="42" state="GrGr" minDur="5" maxDur="50"/>
        <phase duration="3"  state="yryr"/>
        <phase duration="42" state="rGrG" minDur="5" maxDur="50"/>
        <phase duration="3"  state="ryry"/>
    </tlLogic>
    <tlLogic id="C8" type="static" programID="0" offset="0">
        <phase duration="62" state="G"/>
        <phase duration="3"  state="y"/>
        <phase duration="20"  state="r"/>
    </tlLogic>
    <tlLogic id="D3" type="static" programID="0" offset="0">
        <phase duration="62" state="G"/>
        <phase duration="3"  state="y"/>
        <phase duration="20"  state="r"/>
    </tlLogic>
    <tlLogic id="D4" type="actuated" programID="0" offset="0">
        <phase duration="42" state="GrGr" minDur="5" maxDur="50"/>
        <phase duration="3"  state="yryr"/>
        <phase duration="42" state="rGrG" minDur="5" maxDur="50"/>
        <phase duration="3"  state="ryry"/>
    </tlLogic>
    <tlLogic id="D5" type="static" programID="0" offset="0">
        <phase duration="62" state="G"/>
        <phase duration="3"  state="y"/>
        <phase duration="20"  state="r"/>
    </tlLogic>
    <tlLogic id="D6" type="static" programID="0" offset="0">
        <phase duration="62" state="G"/>
        <phase duration="3"  state="y"/>
        <phase duration="20"  state="r"/>
    </tlLogic>
    <tlLogic id="D7" type="actuated" programID="0" offset="0">
        <phase duration="42" state="GrGr" minDur="5" maxDur="50"/>
        <phase duration="3"  state="yryr"/>
        <phase duration="42" state="rGrG" minDur="5" maxDur="50"/>
        <phase duration="3"  state="ryry"/>
    </tlLogic>
    <tlLogic id="D8" type="static" programID="0" offset="0">
        <phase duration="62" state="G"/>
        <phase duration="3"  state="y"/>
        <phase duration="20"  state="r"/>
    </tlLogic>
    <tlLogic id="E4" type="static" programID="0" offset="0">
        <phase duration="62" state="G"/>
        <phase duration="3"  state="y"/>
        <phase duration="20"  state="r"/>
    </tlLogic>
    <tlLogic id="E7" type="static" programID="0" offset="0">
        <phase duration="62" state="G"/>
        <phase duration="3"  state="y"/>
        <phase duration="20"  state="r"/>
    </tlLogic>
    <tlLogic id="F4" type="static" programID="0" offset="0">
        <phase duration="62" state="G"/>
        <phase duration="3"  state="y"/>
        <phase duration="20"  state="r"/>
    </tlLogic>
    <tlLogic id="F7" type="static" programID="0" offset="0">
        <phase duration="62" state="G"/>
        <phase duration="3"  state="y"/>
        <phase duration="20"  state="r"/>
    </tlLogic>
    <tlLogic id="G3" type="static" programID="0" offset="0">
        <phase duration="62" state="G"/>
        <phase duration="3"  state="y"/>
        <phase duration="20"  state="r"/>
    </tlLogic>
    <tlLogic id="G4" type="actuated" programID="0" offset="0">
        <phase duration="42" state="GrGr" minDur="5" maxDur="50"/>
        <phase duration="3"  state="yryr"/>
        <phase duration="42" state="rGrG" minDur="5" maxDur="50"/>
        <phase duration="3"  state="ryry"/>
    </tlLogic>
    <tlLogic id="G5" type="static" programID="0" offset="0">
        <phase duration="62" state="G"/>
        <phase duration="3"  state="y"/>
        <phase duration="20"  state="r"/>
    </tlLogic>
    <tlLogic id="G6" type="static" programID="0" offset="0">
        <phase duration="62" state="G"/>
        <phase duration="3"  state="y"/>
        <phase duration="20"  state="r"/>
    </tlLogic>
    <tlLogic id="G7" type="actuated" programID="0" offset="0">
        <phase duration="42" state="GrGr" minDur="5" maxDur="50"/>
        <phase duration="3"  state="yryr"/>
        <phase duration="42" state="rGrG" minDur="5" maxDur="50"/>
        <phase duration="3"  state="ryry"/>
    </tlLogic>
    <tlLogic id="G8" type="static" programID="0" offset="0">
        <phase duration="62" state="G"/>
        <phase duration="3"  state="y"/>
        <phase duration="20"  state="r"/>
    </tlLogic>
    <tlLogic id="H3" type="static" programID="0" offset="0">
        <phase duration="62" state="G"/>
        <phase duration="3"  state="y"/>
        <phase duration="20"  state="r"/>
    </tlLogic>
    <tlLogic id="H4" type="actuated" programID="0" offset="0">
        <phase duration="42" state="GrGr" minDur="5" maxDur="50"/>
        <phase duration="3"  state="yryr"/>