<?xml version="1.0" encoding="UTF-8"?>

<!-- generated on 2024-08-16 20:35:14 by Eclipse SUMO netedit Version 1.17.0
-->

<routes xmlns:xsi="http://www.w3.org/2001/XMLSchema-instance" xsi:noNamespaceSchemaLocation="http://sumo.dlr.de/xsd/routes_file.xsd">
    <!-- Routes -->
    <route id="r_0" edges="A9B9 B9C9 C9D9 D9E9"/>
    <route id="r_1" edges="F9E9 E9D9 D9C9 C9B9"/>
    <route id="r_10" edges="E8F8 F8G8 G8H8 H8I8"/>
    <route id="r_11" edges="J8I8 I8H8 H8G8 G8F8"/>
    <route id="r_12" edges="G11G10 G10G9 G9G8 G8G7"/>
    <route id="r_13" edges="G6G7 G7G8 G8G9 G9G10"/>
    <route id="r_14" edges="H11H10 H10H9 H9H8 H8H7"/>
    <route id="r_15" edges="H6H7 H7H8 H8H9 H9H10"/>
    <route id="r_16" edges="A5B5 B5C5 C5D5 D5E5"/>
    <route id="r_17" edges="F5E5 E5D5 D5C5 C5B5"/>
    <route id="r_18" edges="A4B4 B4C4 C4D4 D4E4"/>
    <route id="r_19" edges="F4E4 E4D4 D4C4 C4B4"/>
    <route id="r_2" edges="A8B8 B8C8 C8D8 D8E8"/>
    <route id="r_20" edges="C7C6 C6C5 C5C4 C4C3"/>
    <route id="r_21" edges="C2C3 C3C4 C4C5 C5C6"/>
    <route id="r_22" edges="D7D6 D6D5 D5D4 D4D3"/>
    <route id="r_23" edges="D2D3 D3D4 D4D5 D5D6"/>
    <route id="r_24" edges="E5F5 F5G5 G5H5 H5I5"/>
    <route id="r_25" edges="J5I5 I5H5 H5G5 G5F5"/>
    <route id="r_26" edges="E4F4 F4G4 G4H4 H4I4"/>
    <route id="r_27" edges="J4I4 I4H4 H4G4 G4F4"/>
    <route id="r_28" edges="G7G6 G6G5 G5G4 G4G3"/>
    <route id="r_29" edges="G2G3 G3G4 G4G5 G5G6"/>
    <route id="r_3" edges="F8E8 E8D8 D8C8 C8B8"/>
    <route id="r_30" edges="H7H6 H6H5 H5H4 H4H3"/>
    <route id="r_31" edges="H2H3 H3H4 H4H5 H5H6"/>
    <route id="r_4" edges="C11C10 C10C9 C9C8 C8C7"/>
    <route id="r_5" edges="C6C7 C7C8 C8C9 C9C10"/>
    <route id="r_6" edges="D11D10 D10D9 D9D8 D8D7"/>
    <route id="r_7" edges="D6D7 D7D8 D8D9 D9D10"/>
    <route id="r_8" edges="E9F9 F9G9 G9H9 H9I9"/>
    <route id="r_9" edges="J9I9 I9H9 H9G9 G9F9"/>
	
   <flow id="f_1_0" begin="0.00" end="45.00" probability="0.28808555977972866" route="r_0"/>
   <flow id="f_1_1" begin="0.00" end="45.00" probability="0.4206821137247135" route="r_1"/>
   <flow id="f_1_2" begin="0.00" end="45.00" probability="0.05106541770121817" route="r_2"/>
   <flow id="f_1_3" begin="0.00" end="45.00" probability="0.2553800931476692" route="r_3"/>
   <flow id="f_1_4" begin="0.00" end="45.00" probability="0.21494373583630763" route="r_4"/>
   <flow id="f_1_5" begin="0.00" end="45.00" probability="0.03563502520514267" route="r_5"/>
   <flow id="f_1_6" begin="0.00" end="45.00" probability="0.31405989069299617" route="r_6"/>
   <flow id="f_1_7" begin="0.00" end="45.00" probability="0.43275028311264635" route="r_7"/>
   <flow id="f_1_8" begin="0.00" end="45.00" probability="0.24198404216020422" route="r_8"/>
   <flow id="f_1_9" begin="0.00" end="45.00" probability="0.3834332671811856" route="r_9"/>
   <flow id="f_1_10" begin="0.00" end="45.00" probability="0.17235754667182157" route="r_10"/>
   <flow id="f_1_11" begin="0.00" end="45.00" probability="0.15831359670125583" route="r_11"/>
   <flow id="f_1_12" begin="0.00" end="45.00" probability="0.15467360546064715" route="r_12"/>
   <flow id="f_1_13" begin="0.00" end="45.00" probability="0.4026376457105778" route="r_13"/>
   <flow id="f_1_14" begin="0.00" end="45.00" probability="0.23722629645991242" route="r_14"/>
   <flow id="f_1_15" begin="0.00" end="45.00" probability="0.06373719828717792" route="r_15"/>
   <flow id="f_1_16" begin="0.00" end="45.00" probability="0.1355831860818181" route="r_16"/>
   <flow id="f_1_17" begin="0.00" end="45.00" probability="0.13679968962550954" route="r_17"/>
   <flow id="f_1_18" begin="0.00" end="45.00" probability="0.2061854998902894" route="r_18"/>
   <flow id="f_1_19" begin="0.00" end="45.00" probability="0.4282853885649967" route="r_19"/>
   <flow id="f_1_20" begin="0.00" end="45.00" probability="0.19612714398757114" route="r_20"/>
   <flow id="f_1_21" begin="0.00" end="45.00" probability="0.15346271153045177" route="r_21"/>
   <flow id="f_1_22" begin="0.00" end="45.00" probability="0.2502277130881161" route="r_22"/>
   <flow id="f_1_23" begin="0.00" end="45.00" probability="0.26901169038254064" route="r_23"/>
   <flow id="f_1_24" begin="0.00" end="45.00" probability="0.32102993737406815" route="r_24"/>
   <flow id="f_1_25" begin="0.00" end="45.00" probability="0.15624574198069205" route="r_25"/>
   <flow id="f_1_26" begin="0.00" end="45.00" probability="0.09983299594013503" route="r_26"/>
   <flow id="f_1_27" begin="0.00" end="45.00" probability="0.10074949736323939" route="r_27"/>
   <flow id="f_1_28" begin="0.00" end="45.00" probability="0.17425885670174304" route="r_28"/>
   <flow id="f_1_29" begin="0.00" end="45.00" probability="0.15452064674526325" route="r_29"/>
   <flow id="f_1_30" begin="0.00" end="45.00" probability="0.10767829766688572" route="r_30"/>
   <flow id="f_1_31" begin="0.00" end="45.00" probability="0.38870538974498986" route="r_31"/>
   <flow id="f_2_0" begin="50.00" end="95.00" probability="0.344440838241334" route="r_0"/>
   <flow id="f_2_1" begin="50.00" end="95.00" probability="0.30178241775265097" route="r_1"/>
   <flow id="f_2_2" begin="50.00" end="95.00" probability="0.09122496667839006" route="r_2"/>
   <flow id="f_2_3" begin="50.00" end="95.00" probability="0.3403191951865286" route="r_3"/>
   <flow id="f_2_4" begin="50.00" end="95.00" probability="0.010956299139367992" route="r_4"/>
   <flow id="f_2_5" begin="50.00" end="95.00" probability="0.4311736061325942" route="r_5"/>
   <flow id="f_2_6" begin="50.00" end="95.00" probability="0.3523433287214308" route="r_6"/>
   <flow id="f_2_7" begin="50.00" end="95.00" probability="0.06850630412296585" route="r_7"/>
   <flow id="f_2_8" begin="50.00" end="95.00" probability="0.23752922262177978" route="r_8"/>
   <flow id="f_2_9" begin="50.00" end="95.00" probability="0.17650564611162148" route="r_9"/>
   <flow id="f_2_10" begin="50.00" end="95.00" probability="0.32988272955844183" route="r_10"/>
   <flow id="f_2_11" begin="50.00" end="95.00" probability="0.3895177182386358" route="r_11"/>
   <flow id="f_2_12" begin="50.00" end="95.00" probability="0.39859614554810385" route="r_12"/>
   <flow id="f_2_13" begin="50.00" end="95.00" probability="0.10165734714006061" route="r_13"/>
   <flow id="f_2_14" begin="50.00" end="95.00" probability="0.12833484562893552" route="r_14"/>
   <flow id="f_2_15" begin="50.00" end="95.00" probability="0.006799419360728726" route="r_15"/>
   <flow id="f_2_16" begin="50.00" end="95.00" probability="0.09464899462246251" route="r_16"/>
   <flow id="f_2_17" begin="50.00" end="95.00" probability="0.28613349232971796" route="r_17"/>
   <flow id="f_2_18" begin="50.00" end="95.00" probability="0.14473886752213774" route="r_18"/>
   <flow id="f_2_19" begin="50.00" end="95.00" probability="0.2516356300173263" route="r_19"/>
   <flow id="f_2_20" begin="50.00" end="95.00" probability="0.4319098161549555" route="r_20"/>
   <flow id="f_2_21" begin="50.00" end="95.00" probability="0.3363258098518618" route="r_21"/>
   <flow id="f_2_22" begin="50.00" end="95.00" probability="0.2946120957492408" route="r_22"/>
   <flow id="f_2_23" begin="50.00" end="95.00" probability="0.26921283664542234" route="r_23"/>
   <flow id="f_2_24" begin="50.00" end="95.00" probability="0.13409404770212643" route="r_24"/>
   <flow id="f_2_25" begin="50.00" end="95.00" probability="0.07600562427653365" route="r_25"/>
   <flow id="f_2_26" begin="50.00" end="95.00" probability="0.08680093580026549" route="r_26"/>
   <flow id="f_2_27" begin="50.00" end="95.00" probability="0.41130856709630526" route="r_27"/>
   <flow id="f_2_28" begin="50.00" end="95.00" probability="0.05676063650803925" route="r_28"/>
   <flow id="f_2_29" begin="50.00" end="95.00" probability="0.2157455034457629" route="r_29"/>
   <flow id="f_2_30" begin="50.00" end="95.00" probability="0.3082387563797701" route="r_30"/>
   <flow id="f_2_31" begin="50.00" end="95.00" probability="0.4016147004481337" route="r_31"/>
   <flow id="f_3_0" begin="100.00" end="145.00" probability="0.3260784922723865" route="r_0"/>
   <flow id="f_3_1" begin="100.00" end="145.00" probability="0.03256775953749627" route="r_1"/>
   <flow id="f_3_2" begin="100.00" end="145.00" probability="0.08665706988806518" route="r_2"/>
   <flow id="f_3_3" begin="100.00" end="145.00" probability="0.21154429803055014" route="r_3"/>
   <flow id="f_3_4" begin="100.00" end="145.00" probability="0.17197880909410124" route="r_4"/>
   <flow id="f_3_5" begin="100.00" end="145.00" probability="0.11023880592281494" route="r_5"/>
   <flow id="f_3_6" begin="100.00" end="145.00" probability="0.08139110258688945" route="r_6"/>
   <flow id="f_3_7" begin="100.00" end="145.00" probability="0.05882293751027248" route="r_7"/>
   <flow id="f_3_8" begin="100.00" end="145.00" probability="0.4380535028517175" route="r_8"/>
   <flow id="f_3_9" begin="100.00" end="145.00" probability="0.03829938414331721" route="r_9"/>
   <flow id="f_3_10" begin="100.00" end="145.00" probability="0.0040775231084573815" route="r_10"/>
   <flow id="f_3_11" begin="100.00" end="145.00" probability="0.03667854276365737" route="r_11"/>
   <flow id="f_3_12" begin="100.00" end="145.00" probability="0.29913321969682477" route="r_12"/>
   <flow id="f_3_13" begin="100.00" end="145.00" probability="0.078631092417459" route="r_13"/>
   <flow id="f_3_14" begin="100.00" end="145.00" probability="0.10299123471947151" route="r_14"/>
   <flow id="f_3_15" begin="100.00" end="145.00" probability="0.35077352916232973" route="r_15"/>
   <flow id="f_3_16" begin="100.00" end="145.00" probability="0.08033564076582209" route="r_16"/>
   <flow id="f_3_17" begin="100.00" end="145.00" probability="0.08928574675938108" route="r_17"/>
   <flow id="f_3_18" begin="100.00" end="145.00" probability="0.04157556907846746" route="r_18"/>
   <flow id="f_3_19" begin="100.00" end="145.00" probability="0.05246771474339662" route="r_19"/>
   <flow id="f_3_20" begin="100.00" end="145.00" probability="0.3977240939469672" route="r_20"/>
   <flow id="f_3_21" begin="100.00" end="145.00" probability="0.04386876390244343" route="r_21"/>
   <flow id="f_3_22" begin="100.00" end="145.00" probability="0.3646243845108194" route="r_22"/>
   <flow id="f_3_23" begin="100.00" end="145.00" probability="0.2995401014547232" route="r_23"/>
   <flow id="f_3_24" begin="100.00" end="145.00" probability="0.22760726503158737" route="r_24"/>
   <flow id="f_3_25" begin="100.00" end="145.00" probability="0.07981087858534283" route="r_25"/>
   <flow id="f_3_26" begin="100.00" end="145.00" probability="0.3275517063749529" route="r_26"/>
   <flow id="f_3_27" begin="100.00" end="145.00" probability="0.1459381632502949" route="r_27"/>
   <flow id="f_3_28" begin="100.00" end="145.00" probability="0.3562061251242664" route="r_28"/>
   <flow id="f_3_29" begin="100.00" end="145.00" probability="0.28005626741167544" route="r_29"/>
   <flow id="f_3_30" begin="100.00" end="145.00" probability="0.22105141291062988" route="r_30"/>
   <flow id="f_3_31" begin="100.00" end="145.00" probability="0.2845103023767657" route="r_31"/>
   <flow id="f_4_0" begin="150.00" end="195.00" probability="0.1495945603850991" route="r_0"/>
   <flow id="f_4_1" begin="150.00" end="195.00" probability="0.29901029486257236" route="r_1"/>
   <flow id="f_4_2" begin="150.00" end="195.00" probability="0.3596249022343054" route="r_2"/>
   <flow id="f_4_3" begin="150.00" end="195.00" probability="0.18179434217896667" route="r_3"/>
   <flow id="f_4_4" begin="150.00" end="195.00" probability="0.1266203500352203" route="r_4"/>
   <flow id="f_4_5" begin="150.00" end="195.00" probability="0.21477978848869914" route="r_5"/>
   <flow id="f_4_6" begin="150.00" end="195.00" probability="0.3487816184439331" route="r_6"/>
   <flow id="f_4_7" begin="150.00" end="195.00" probability="0.43484768688561204" route="r_7"/>
   <flow id="f_4_8" begin="150.00" end="195.00" probability="0.04973313089782197" route="r_8"/>
   <flow id="f_4_9" begin="150.00" end="195.00" probability="0.1129866194966208" route="r_9"/>
   <flow id="f_4_10" begin="150.00" end="195.00" probability="0.4250268448609733" route="r_10"/>
   <flow id="f_4_11" begin="150.00" end="195.00" probability="0.19923303907357595" route="r_11"/>
   <flow id="f_4_12" begin="150.00" end="195.00" probability="0.2022464532844045" route="r_12"/>
   <flow id="f_4_13" begin="150.00" end="195.00" probability="0.3420775408463014" route="r_13"/>
   <flow id="f_4_14" begin="150.00" end="195.00" probability="0.35560237237560866" route="r_14"/>
   <flow id="f_4_15" begin="150.00" end="195.00" probability="0.38749916951912255" route="r_15"/>
   <flow id="f_4_16" begin="150.00" end="195.00" probability="0.2501172357391754" route="r_16"/>
   <flow id="f_4_17" begin="150.00" end="195.00" probability="0.43656476083152346" route="r_17"/>
   <flow id="f_4_18" begin="150.00" end="195.00" probability="0.33643515989808837" route="r_18"/>
   <flow id="f_4_19" begin="150.00" end="195.00" probability="0.18141971462222248" route="r_19"/>
   <flow id="f_4_20" begin="150.00" end="195.00" probability="0.38810501575038614" route="r_20"/>
   <flow id="f_4_21" begin="150.00" end="195.00" probability="0.3570785484016939" route="r_21"/>
   <flow id="f_4_22" begin="150.00" end="195.00" probability="0.3988961848884736" route="r_22"/>
   <flow id="f_4_23" begin="150.00" end="195.00" probability="0.007858455804028469" route="r_23"/>
   <flow id="f_4_24" begin="150.00" end="195.00" probability="0.2943356343743245" route="r_24"/>
   <flow id="f_4_25" begin="150.00" end="195.00" probability="0.37305600906690894" route="r_25"/>
   <flow id="f_4_26" begin="150.00" end="195.00" probability="0.06481602882527912" route="r_26"/>
   <flow id="f_4_27" begin="150.00" end="195.00" probability="0.33409365999433754" route="r_27"/>
   <flow id="f_4_28" begin="150.00" end="195.00" probability="0.27202588911972336" route="r_28"/>
   <flow id="f_4_29" begin="150.00" end="195.00" probability="0.26231903551205804" route="r_29"/>
   <flow id="f_4_30" begin="150.00" end="195.00" probability="0.2749944613093866" route="r_30"/>
   <flow id="f_4_31" begin="150.00" end="195.00" probability="0.1748834449560122" route="r_31"/>
   <flow id="f_5_0" begin="200.00" end="245.00" probability="0.14173199715892665" route="r_0"/>
   <flow id="f_5_1" begin="200.00" end="245.00" probability="0.22173616832047258" route="r_1"/>
   <flow id="f_5_2" begin="200.00" end="245.00" probability="0.40747188004785856" route="r_2"/>
   <flow id="f_5_3" begin="200.00" end="245.00" probability="0.43232833158889716" route="r_3"/>
   <flow id="f_5_4" begin="200.00" end="245.00" probability="0.28095455387242724" route="r_4"/>
   <flow id="f_5_5" begin="200.00" end="245.00" probability="0.0915179396279629" route="r_5"/>
   <flow id="f_5_6" begin="200.00" end="245.00" probability="0.4078101428556385" route="r_6"/>
   <flow id="f_5_7" begin="200.00" end="245.00" probability="0.007508376103958103" route="r_7"/>
   <flow id="f_5_8" begin="200.00" end="245.00" probability="0.10317290109324588" route="r_8"/>
   <flow id="f_5_9" begin="200.00" end="245.00" probability="0.13187707683897124" route="r_9"/>
   <flow id="f_5_10" begin="200.00" end="245.00" probability="0.13850386564379816" route="r_10"/>
   <flow id="f_5_11" begin="200.00" end="245.00" probability="0.2903249108067258" route="r_11"/>
   <flow id="f_5_12" begin="200.00" end="245.00" probability="0.39800219387921104" route="r_12"/>
   <flow id="f_5_13" begin="200.00" end="245.00" probability="0.17741175134122286" route="r_13"/>
   <flow id="f_5_14" begin="200.00" end="245.00" probability="0.355837223891044" route="r_14"/>
   <flow id="f_5_15" begin="200.00" end="245.00" probability="0.12181472849177831" route="r_15"/>
   <flow id="f_5_16" begin="200.00" end="245.00" probability="0.30533254926225506" route="r_16"/>
   <flow id="f_5_17" begin="200.00" end="245.00" probability="0.3002769944514581" route="r_17"/>
   <flow id="f_5_18" begin="200.00" end="245.00" probability="0.07446419959440084" route="r_18"/>
   <flow id="f_5_19" begin="200.00" end="245.00" probability="0.35170075809365425" route="r_19"/>
   <flow id="f_5_20" begin="200.00" end="245.00" probability="0.33634838911048653" route="r_20"/>
   <flow id="f_5_21" begin="200.00" end="245.00" probability="0.27571032570399223" route="r_21"/>
   <flow id="f_5_22" begin="200.00" end="245.00" probability="0.3272761674115524" route="r_22"/>
   <flow id="f_5_23" begin="200.00" end="245.00" probability="0.18781996549863167" route="r_23"/>
   <flow id="f_5_24" begin="200.00" end="245.00" probability="0.09588383606408778" route="r_24"/>
   <flow id="f_5_25" begin="200.00" end="245.00" probability="0.013979311202029776" route="r_25"/>
   <flow id="f_5_26" begin="200.00" end="245.00" probability="0.058758502241639726" route="r_26"/>
   <flow id="f_5_27" begin="200.00" end="245.00" probability="0.30345079943303604" route="r_27"/>
   <flow id="f_5_28" begin="200.00" end="245.00" probability="0.3727313281866696" route="r_28"/>
   <flow id="f_5_29" begin="200.00" end="245.00" probability="0.17726395921851026" route="r_29"/>
   <flow id="f_5_30" begin="200.00" end="245.00" probability="0.14686158891321857" route="r_30"/>
   <flow id="f_5_31" begin="200.00" end="245.00" probability="0.15355672729257158" route="r_31"/>
   <flow id="f_6_0" begin="250.00" end="295.00" probability="0.20403575512636374" route="r_0"/>
   <flow id="f_6_1" begin="250.00" end="295.00" probability="0.06674513399781881" route="r_1"/>
   <flow id="f_6_2" begin="250.00" end="295.00" probability="0.4370692217242047" route="r_2"/>
   <flow id="f_6_3" begin="250.00" end="295.00" probability="0.21521346634769828" route="r_3"/>
   <flow id="f_6_4" begin="250.00" end="295.00" probability="0.31510125574938513" route="r_4"/>
   <flow id="f_6_5" begin="250.00" end="295.00" probability="0.43688879624738525" route="r_5"/>
   <flow id="f_6_6" begin="250.00" end="295.00" probability="0.38678856204776185" route="r_6"/>
   <flow id="f_6_7" begin="250.00" end="295.00" probability="0.31462113833892225" route="r_7"/>
   <flow id="f_6_8" begin="250.00" end="295.00" probability="0.354356036695318" route="r_8"/>
   <flow id="f_6_9" begin="250.00" end="295.00" probability="0.03983246482172509" route="r_9"/>
   <flow id="f_6_10" begin="250.00" end="295.00" probability="0.3371564522345013" route="r_10"/>
   <flow id="f_6_11" begin="250.00" end="295.00" probability="0.3809021408047099" route="r_11"/>
   <flow id="f_6_12" begin="250.00" end="295.00" probability="0.206886761742339" route="r_12"/>
   <flow id="f_6_13" begin="250.00" end="295.00" probability="0.3902760777097805" route="r_13"/>
   <flow id="f_6_14" begin="250.00" end="295.00" probability="0.13395118138484147" route="r_14"/>
   <flow id="f_6_15" begin="250.00" end="295.00" probability="0.0037394210679614903" route="r_15"/>
   <flow id="f_6_16" begin="250.00" end="295.00" probability="0.35415356385959285" route="r_16"/>
   <flow id="f_6_17" begin="250.00" end="295.00" probability="0.06828865150960353" route="r_17"/>
   <flow id="f_6_18" begin="250.00" end="295.00" probability="0.33138131153158584" route="r_18"/>
   <flow id="f_6_19" begin="250.00" end="295.00" probability="0.0815435012113884" route="r_19"/>
   <flow id="f_6_20" begin="250.00" end="295.00" probability="0.26477136507393" route="r_20"/>
   <flow id="f_6_21" begin="250.00" end="295.00" probability="0.32508358666831466" route="r_21"/>
   <flow id="f_6_22" begin="250.00" end="295.00" probability="0.1567645243186224" route="r_22"/>
   <flow id="f_6_23" begin="250.00" end="295.00" probability="0.09170597460294563" route="r_23"/>
   <flow id="f_6_24" begin="250.00" end="295.00" probability="0.09349308323463598" route="r_24"/>
   <flow id="f_6_25" begin="250.00" end="295.00" probability="0.3302507816427363" route="r_25"/>
   <flow id="f_6_26" begin="250.00" end="295.00" probability="0.17890241200525825" route="r_26"/>
   <flow id="f_6_27" begin="250.00" end="295.00" probability="0.363820580177306" route="r_27"/>
   <flow id="f_6_28" begin="250.00" end="295.00" probability="0.3352829240804078" route="r_28"/>
   <flow id="f_6_29" begin="250.00" end="295.00" probability="0.015192269392880847" route="r_29"/>
   <flow id="f_6_30" begin="250.00" end="295.00" probability="0.36902665992725203" route="r_30"/>
   <flow id="f_6_31" begin="250.00" end="295.00" probability="0.2977310218165248" route="r_31"/>
   <flow id="f_7_0" begin="300.00" end="345.00" probability="0.360588247744461" route="r_0"/>
   <flow id="f_7_1" begin="300.00" end="345.00" probability="0.024412687488274465" route="r_1"/>
   <flow id="f_7_2" begin="300.00" end="345.00" probability="0.23307842532554923" route="r_2"/>
   <flow id="f_7_3" begin="300.00" end="345.00" probability="0.20530836240525202" route="r_3"/>
   <flow id="f_7_4" begin="300.00" end="345.00" probability="0.09475742905118834" route="r_4"/>
   <flow id="f_7_5" begin="300.00" end="345.00" probability="0.37676693458374627" route="r_5"/>
   <flow id="f_7_6" begin="300.00" end="345.00" probability="0.15805674334423053" route="r_6"/>
   <flow id="f_7_7" begin="300.00" end="345.00" probability="0.31940173547011574" route="r_7"/>
   <flow id="f_7_8" begin="300.00" end="345.00" probability="0.13223496983390348" route="r_8"/>
   <flow id="f_7_9" begin="300.00" end="345.00" probability="0.2562154204277381" route="r_9"/>
   <flow id="f_7_10" begin="300.00" end="345.00" probability="0.11519796487014011" route="r_10"/>
   <flow id="f_7_11" begin="300.00" end="345.00" probability="0.3965166765839357" route="r_11"/>
   <flow id="f_7_12" begin="300.00" end="345.00" probability="0.12354804651843285" route="r_12"/>
   <flow id="f_7_13" begin="300.00" end="345.00" probability="0.3281688146307282" route="r_13"/>
   <flow id="f_7_14" begin="300.00" end="345.00" probability="0.30491991939184143" route="r_14"/>
   <flow id="f_7_15" begin="300.00" end="345.00" probability="0.0631315479728293" route="r_15"/>
   <flow id="f_7_16" begin="300.00" end="345.00" probability="0.4182851176864678" route="r_16"/>
   <flow id="f_7_17" begin="300.00" end="345.00" probability="0.11656018548633444" route="r_17"/>
   <flow id="f_7_18" begin="300.00" end="345.00" probability="0.3566092679475421" route="r_18"/>
   <flow id="f_7_19" begin="300.00" end="345.00" probability="0.2881114800958487" route="r_19"/>
   <flow id="f_7_20" begin="300.00" end="345.00" probability="0.314598535520421" route="r_20"/>
   <flow id="f_7_21" begin="300.00" end="345.00" probability="0.15727735102180915" route="r_21"/>
   <flow id="f_7_22" begin="300.00" end="345.00" probability="0.0718368315421847" route="r_22"/>
   <flow id="f_7_23" begin="300.00" end="345.00" probability="0.17181041647380463" route="r_23"/>
   <flow id="f_7_24" begin="300.00" end="345.00" probability="0.21201903084163531" route="r_24"/>
   <flow id="f_7_25" begin="300.00" end="345.00" probability="0.060397267437144214" route="r_25"/>
   <flow id="f_7_26" begin="300.00" end="345.00" probability="0.02727303469484041" route="r_26"/>
   <flow id="f_7_27" begin="300.00" end="345.00" probability="0.3385518623362823" route="r_27"/>
   <flow id="f_7_28" begin="300.00" end="345.00" probability="0.2075946545025151" route="r_28"/>
   <flow id="f_7_29" begin="300.00" end="345.00" probability="0.35122322605172956" route="r_29"/>
   <flow id="f_7_30" begin="300.00" end="345.00" probability="0.42934577795943935" route="r_30"/>
   <flow id="f_7_31" begin="300.00" end="345.00" probability="0.06267088705284571" route="r_31"/>
   <flow id="f_8_0" begin="350.00" end="395.00" probability="0.0975294266246821" route="r_0"/>
   <flow id="f_8_1" begin="350.00" end="395.00" probability="0.10002925983081092" route="r_1"/>
   <flow id="f_8_2" begin="350.00" end="395.00" probability="0.15187429077343326" route="r_2"/>
   <flow id="f_8_3" begin="350.00" end="395.00" probability="0.023152684210990343" route="r_3"/>
   <flow id="f_8_4" begin="350.00" end="395.00" probability="0.3451755045986733" route="r_4"/>
   <flow id="f_8_5" begin="350.00" end="395.00" probability="0.03375817761773317" route="r_5"/>
   <flow id="f_8_6" begin="350.00" end="395.00" probability="0.2590050007394" route="r_6"/>
   <flow id="f_8_7" begin="350.00" end="395.00" probability="0.13262381419800495" route="r_7"/>
   <flow id="f_8_8" begin="350.00" end="395.00" probability="0.17531279248613732" route="r_8"/>
   <flow id="f_8_9" begin="350.00" end="395.00" probability="0.12735538011426148" route="r_9"/>
   <flow id="f_8_10" begin="350.00" end="395.00" probability="0.09064002386064551" route="r_10"/>
   <flow id="f_8_11" begin="350.00" end="395.00" probability="0.3953930662509418" route="r_11"/>
   <flow id="f_8_12" begin="350.00" end="395.00" probability="0.14591757665791122" route="r_12"/>
   <flow id="f_8_13" begin="350.00" end="395.00" probability="0.12010153099083816" route="r_13"/>
   <flow id="f_8_14" begin="350.00" end="395.00" probability="0.3166193365842397" route="r_14"/>
   <flow id="f_8_15" begin="350.00" end="395.00" probability="0.3611962150931136" route="r_15"/>
   <flow id="f_8_16" begin="350.00" end="395.00" probability="0.09411336472181503" route="r_16"/>
   <flow id="f_8_17" begin="350.00" end="395.00" probability="0.23524290440688037" route="r_17"/>
   <flow id="f_8_18" begin="350.00" end="395.00" probability="0.3155598110442476" route="r_18"/>
   <flow id="f_8_19" begin="350.00" end="395.00" probability="0.050013326628312094" route="r_19"/>
   <flow id="f_8_20" begin="350.00" end="395.00" probability="0.09937553589858261" route="r_20"/>
   <flow id="f_8_21" begin="350.00" end="395.00" probability="0.1776824601187019" route="r_21"/>
   <flow id="f_8_22" begin="350.00" end="395.00" probability="0.29779040418866043" route="r_22"/>
   <flow id="f_8_23" begin="350.00" end="395.00" probability="0.29105342853925276" route="r_23"/>
   <flow id="f_8_24" begin="350.00" end="395.00" probability="0.1288085529410322" route="r_24"/>
   <flow id="f_8_25" begin="350.00" end="395.00" probability="0.02451786762612701" route="r_25"/>
   <flow id="f_8_26" begin="350.00" end="395.00" probability="0.18157663040653305" route="r_26"/>
   <flow id="f_8_27" begin="350.00" end="395.00" probability="0.406150855072716" route="r_27"/>
   <flow id="f_8_28" begin="350.00" end="395.00" probability="0.4030400773763661" route="r_28"/>
   <flow id="f_8_29" begin="350.00" end="395.00" probability="0.37010168846733993" route="r_29"/>
   <flow id="f_8_30" begin="350.00" end="395.00" probability="0.020336928183157715" route="r_30"/>
   <flow id="f_8_31" begin="350.00" end="395.00" probability="0.07711263120653014" route="r_31"/>
   <flow id="f_9_0" begin="400.00" end="445.00" probability="0.06257472278448081" route="r_0"/>
   <flow id="f_9_1" begin="400.00" end="445.00" probability="0.0858762947903737" route="r_1"/>
   <flow id="f_9_2" begin="400.00" end="445.00" probability="0.04137566171059279" route="r_2"/>
   <flow id="f_9_3" begin="400.00" end="445.00" probability="0.07710102577566452" route="r_3"/>
   <flow id="f_9_4" begin="400.00" end="445.00" probability="0.2542347597111182" route="r_4"/>
   <flow id="f_9_5" begin="400.00" end="445.00" probability="0.007969360869046649" route="r_5"/>
   <flow id="f_9_6" begin="400.00" end="445.00" probability="0.32457585243380715" route="r_6"/>
   <flow id="f_9_7" begin="400.00" end="445.00" probability="0.12105538106420953" route="r_7"/>
   <flow id="f_9_8" begin="400.00" end="445.00" probability="0.23756323291811648" route="r_8"/>
   <flow id="f_9_9" begin="400.00" end="445.00" probability="0.10955108426291467" route="r_9"/>
   <flow id="f_9_10" begin="400.00" end="445.00" probability="0.02568911633592688" route="r_10"/>
   <flow id="f_9_11" begin="400.00" end="445.00" probability="0.4354937522189649" route="r_11"/>
   <flow id="f_9_12" begin="400.00" end="445.00" probability="0.3712475235566523" route="r_12"/>
   <flow id="f_9_13" begin="400.00" end="445.00" probability="0.14187278316889598" route="r_13"/>
   <flow id="f_9_14" begin="400.00" end="445.00" probability="0.12350068068689962" route="r_14"/>
   <flow id="f_9_15" begin="400.00" end="445.00" probability="0.15948556961795357" route="r_15"/>
   <flow id="f_9_16" begin="400.00" end="445.00" probability="0.2408453261151491" route="r_16"/>
   <flow id="f_9_17" begin="400.00" end="445.00" probability="0.18341847838064146" route="r_17"/>
   <flow id="f_9_18" begin="400.00" end="445.00" probability="0.15231501496754205" route="r_18"/>
   <flow id="f_9_19" begin="400.00" end="445.00" probability="0.3317241973599022" route="r_19"/>
   <flow id="f_9_20" begin="400.00" end="445.00" probability="0.06474855468098425" route="r_20"/>
   <flow id="f_9_21" begin="400.00" end="445.00" probability="0.27974156839517966" route="r_21"/>
   <flow id="f_9_22" begin="400.00" end="445.00" probability="0.3658587984426579" route="r_22"/>
   <flow id="f_9_23" begin="400.00" end="445.00" probability="0.15101800777406033" route="r_23"/>
   <flow id="f_9_24" begin="400.00" end="445.00" probability="0.13742164397409914" route="r_24"/>
   <flow id="f_9_25" begin="400.00" end="445.00" probability="0.09072236245884002" route="r_25"/>
   <flow id="f_9_26" begin="400.00" end="445.00" probability="0.41619328150252366" route="r_26"/>
   <flow id="f_9_27" begin="400.00" end="445.00" probability="0.38820539862114717" route="r_27"/>
   <flow id="f_9_28" begin="400.00" end="445.00" probability="0.16475913588208116" route="r_28"/>
   <flow id="f_9_29" begin="400.00" end="445.00" probability="0.1336963696243342" route="r_29"/>
   <flow id="f_9_30" begin="400.00" end="445.00" probability="0.15442560427517496" route="r_30"/>
   <flow id="f_9_31" begin="400.00" end="445.00" probability="0.011658480630648171" route="r_31"/>
   <flow id="f_10_0" begin="450.00" end="495.00" probability="0.3350268622700189" route="r_0"/>
   <flow id="f_10_1" begin="450.00" end="495.00" probability="0.12019495745705067" route="r_1"/>
   <flow id="f_10_2" begin="450.00" end="495.00" probability="0.07405358962081615" route="r_2"/>