<?xml version="1.0" encoding="UTF-8"?>

<!-- generated on 2024-08-16 20:35:14 by Eclipse SUMO netedit Version 1.17.0
-->

<routes xmlns:xsi="http://www.w3.org/2001/XMLSchema-instance" xsi:noNamespaceSchemaLocation="http://sumo.dlr.de/xsd/routes_file.xsd">
    <!-- Routes -->
    <route id="r_0" edges="A9B9 B9C9 C9D9 D9E9"/>
    <route id="r_1" edges="F9E9 E9D9 D9C9 C9B9"/>
    <route id="r_10" edges="E8F8 F8G8 G8H8 H8I8"/>
    <route id="r_11" edges="J8I8 I8H8 H8G8 G8F8"/>
    <route id="r_12" edges="G11G10 G10G9 G9G8 G8G7"/>
    <route id="r_13" edges="G6G7 G7G8 G8G9 G9G10"/>
    <route id="r_14" edges="H11H10 H10H9 H9H8 H8H7"/>
    <route id="r_15" edges="H6H7 H7H8 H8H9 H9H10"/>
    <route id="r_16" edges="A5B5 B5C5 C5D5 D5E5"/>
    <route id="r_17" edges="F5E5 E5D5 D5C5 C5B5"/>
    <route id="r_18" edges="A4B4 B4C4 C4D4 D4E4"/>
    <route id="r_19" edges="F4E4 E4D4 D4C4 C4B4"/>
    <route id="r_2" edges="A8B8 B8C8 C8D8 D8E8"/>
    <route id="r_20" edges="C7C6 C6C5 C5C4 C4C3"/>
    <route id="r_21" edges="C2C3 C3C4 C4C5 C5C6"/>
    <route id="r_22" edges="D7D6 D6D5 D5D4 D4D3"/>
    <route id="r_23" edges="D2D3 D3D4 D4D5 D5D6"/>
    <route id="r_24" edges="E5F5 F5G5 G5H5 H5I5"/>
    <route id="r_25" edges="J5I5 I5H5 H5G5 G5F5"/>
    <route id="r_26" edges="E4F4 F4G4 G4H4 H4I4"/>
    <route id="r_27" edges="J4I4 I4H4 H4G4 G4F4"/>
    <route id="r_28" edges="G7G6 G6G5 G5G4 G4G3"/>
    <route id="r_29" edges="G2G3 G3G4 G4G5 G5G6"/>
    <route id="r_3" edges="F8E8 E8D8 D8C8 C8B8"/>
    <route id="r_30" edges="H7H6 H6H5 H5H4 H4H3"/>
    <route id="r_31" edges="H2H3 H3H4 H4H5 H5H6"/>
    <route id="r_4" edges="C11C10 C10C9 C9C8 C8C7"/>
    <route id="r_5" edges="C6C7 C7C8 C8C9 C9C10"/>
    <route id="r_6" edges="D11D10 D10D9 D9D8 D8D7"/>
    <route id="r_7" edges="D6D7 D7D8 D8D9 D9D10"/>
    <route id="r_8" edges="E9F9 F9G9 G9H9 H9I9"/>
    <route id="r_9" edges="J9I9 I9H9 H9G9 G9F9"/>
	
   <flow id="f_0_0" begin="0.00" end="50.00" probability="0.3" route="r_0"/>
   <flow id="f_0_1" begin="0.00" end="50.00" probability="0.3" route="r_1"/>
   <flow id="f_0_4" begin="0.00" end="50.00" probability="0.3" route="r_4"/>
   <flow id="f_0_5" begin="0.00" end="50.00" probability="0.3" route="r_5"/>
   <flow id="f_0_8" begin="0.00" end="200.00" probability="0.25" route="r_8"/>
   <flow id="f_0_9" begin="0.00" end="200.00" probability="0.25" route="r_9"/>
   <flow id="f_0_10" begin="0.00" end="200.00" probability="0.25" route="r_10"/>
   <flow id="f_0_11" begin="0.00" end="200.00" probability="0.25" route="r_11"/>
   <flow id="f_0_12" begin="0.00" end="200.00" probability="0.25" route="r_12"/>
   <flow id="f_0_13" begin="0.00" end="200.00" probability="0.25" route="r_13"/>
   <flow id="f_0_14" begin="0.00" end="200.00" probability="0.25" route="r_14"/>
   <flow id="f_0_15" begin="0.00" end="200.00" probability="0.25" route="r_15"/>
   <flow id="f_0_16" begin="0.00" end="80.00" probability="0.3" route="r_16"/>
   <flow id="f_0_18" begin="0.00" end="80.00" probability="0.3" route="r_18"/>
   <flow id="f_0_20" begin="0.00" end="70.00" probability="0.3" route="r_20"/>
   <flow id="f_0_23" begin="0.00" end="70.00" probability="0.3" route="r_23"/>
   <flow id="f_1_24" begin="0.00" end="30.00" probability="0.011667023618905897" route="r_24"/>
   <flow id="f_1_25" begin="0.00" end="30.00" probability="0.13762427794812757" route="r_25"/>
   <flow id="f_1_26" begin="0.00" end="30.00" probability="0.09623878767005044" route="r_26"/>
   <flow id="f_1_27" begin="0.00" end="30.00" probability="0.2993604838433229" route="r_27"/>
   <flow id="f_1_28" begin="0.00" end="30.00" probability="0.3897046334303594" route="r_28"/>
   <flow id="f_1_29" begin="0.00" end="30.00" probability="0.37299798744961765" route="r_29"/>
   <flow id="f_1_30" begin="0.00" end="30.00" probability="0.34544588622741257" route="r_30"/>
   <flow id="f_1_31" begin="0.00" end="30.00" probability="0.1586321239933553" route="r_31"/>
   <flow id="f_0_17" begin="20.00" end="100.00" probability="0.3" route="r_17"/>
   <flow id="f_0_19" begin="20.00" end="100.00" probability="0.3" route="r_19"/>
   <flow id="f_0_21" begin="30.00" end="100.00" probability="0.3" route="r_21"/>
   <flow id="f_0_22" begin="30.00" end="100.00" probability="0.3" route="r_22"/>
   <flow id="f_2_24" begin="33.00" end="63.00" probability="0.09377006946784885" route="r_24"/>
   <flow id="f_2_25" begin="33.00" end="63.00" probability="0.2275446289187992" route="r_25"/>
   <flow id="f_2_26" begin="33.00" end="63.00" probability="0.24380236362754332" route="r_26"/>
   <flow id="f_2_27" begin="33.00" end="63.00" probability="0.11767295875703679" route="r_27"/>
   <flow id="f_2_28" begin="33.00" end="63.00" probability="0.09803727985413216" route="r_28"/>
   <flow id="f_2_29" begin="33.00" end="63.00" probability="0.1584327320536516" route="r_29"/>
   <flow id="f_2_30" begin="33.00" end="63.00" probability="0.38666135795342943" route="r_30"/>
   <flow id="f_2_31" begin="33.00" end="63.00" probability="0.06717235585222397" route="r_31"/>
   <flow id="f_0_2" begin="50.00" end="100.00" probability="0.3" route="r_2"/>
   <flow id="f_0_3" begin="50.00" end="100.00" probability="0.3" route="r_3"/>
   <flow id="f_0_6" begin="50.00" end="100.00" probability="0.3" route="r_6"/>
   <flow id="f_0_7" begin="50.00" end="100.00" probability="0.3" route="r_7"/>
   <flow id="f_3_24" begin="66.00" end="96.00" probability="0.11466049118846566" route="r_24"/>
   <flow id="f_3_25" begin="66.00" end="96.00" probability="0.3044386486031349" route="r_25"/>
   <flow id="f_3_26" begin="66.00" end="96.00" probability="0.2835580492837928" route="r_26"/>
   <flow id="f_3_27" begin="66.00" end="96.00" probability="0.1202121573153515" route="r_27"/>
   <flow id="f_3_28" begin="66.00" end="96.00" probability="0.3075669455642271" route="r_28"/>
   <flow id="f_3_29" begin="66.00" end="96.00" probability="0.22946305213875562" route="r_29"/>
   <flow id="f_3_30" begin="66.00" end="96.00" probability="0.1660693489832591" route="r_30"/>
   <flow id="f_3_31" begin="66.00" end="96.00" probability="0.0011719896569795107" route="r_31"/>
   <flow id="f_4_24" begin="99.00" end="129.00" probability="0.24853618140567135" route="r_24"/>
   <flow id="f_4_25" begin="99.00" end="129.00" probability="0.13373785113327383" route="r_25"/>
   <flow id="f_4_26" begin="99.00" end="129.00" probability="0.26474733452573734" route="r_26"/>
   <flow id="f_4_27" begin="99.00" end="129.00" probability="0.21256710014937005" route="r_27"/>
   <flow id="f_4_28" begin="99.00" end="129.00" probability="0.14758584221598908" route="r_28"/>
   <flow id="f_4_29" begin="99.00" end="129.00" probability="0.11907932314885517" route="r_29"/>
   <flow id="f_4_30" begin="99.00" end="129.00" probability="0.39694084176425465" route="r_30"/>
   <flow id="f_4_31" begin="99.00" end="129.00" probability="0.1680952008356881" route="r_31"/>
   <flow id="f_1_16" begin="100.00" end="150.00" probability="0.3" route="r_16"/>
   <flow id="f_1_17" begin="110.00" end="160.00" probability="0.3" route="r_17"/>
   <flow id="f_1_18" begin="120.00" end="170.00" probability="0.3" route="r_18"/>
   <flow id="f_1_19" begin="130.00" end="180.00" probability="0.3" route="r_19"/>
   <flow id="f_5_24" begin="132.00" end="162.00" probability="0.22964191623239164" route="r_24"/>
   <flow id="f_5_25" begin="132.00" end="162.00" probability="0.3065830271882808" route="r_25"/>
   <flow id="f_5_26" begin="132.00" end="162.00" probability="0.3697887709633946" route="r_26"/>
   <flow id="f_5_27" begin="132.00" end="162.00" probability="0.34128077089783226" route="r_27"/>
   <flow id="f_5_28" begin="132.00" end="162.00" probability="0.25247685722345853" route="r_28"/>
   <flow id="f_5_29" begin="132.00" end="162.00" probability="0.2767106283337" route="r_29"/>
   <flow id="f_5_30" begin="132.00" end="162.00" probability="0.2241299059641556" route="r_30"/>
   <flow id="f_5_31" begin="132.00" end="162.00" probability="0.2873682942648887" route="r_31"/>
   <flow id="f_1_20" begin="140.00" end="190.00" probability="0.3" route="r_20"/>
   <flow id="f_1_21" begin="150.00" end="200.00" probability="0.3" route="r_21"/>
   <flow id="f_1_22" begin="160.00" end="210.00" probability="0.3" route="r_22"/>
   <flow id="f_6_24" begin="165.00" end="195.00" probability="0.12714079771843464" route="r_24"/>
   <flow id="f_6_25" begin="165.00" end="195.00" probability="0.23093349161291285" route="r_25"/>
   <flow id="f_6_26" begin="165.00" end="195.00" probability="0.15409040499147758" route="r_26"/>
   <flow id="f_6_27" begin="165.00" end="195.00" probability="0.29884217278784364" route="r_27"/>
   <flow id="f_6_28" begin="165.00" end="195.00" probability="0.38357595955058715" route="r_28"/>
   <flow id="f_6_29" begin="165.00" end="195.00" probability="0.2237435418045356" route="r_29"/>
   <flow id="f_6_30" begin="165.00" end="195.00" probability="0.3046570106333282" route="r_30"/>
   <flow id="f_6_31" begin="165.00" end="195.00" probability="0.044049400050294174" route="r_31"/>
   <flow id="f_1_23" begin="170.00" end="220.00" probability="0.3" route="r_23"/>
   <flow id="f_7_24" begin="198.00" end="228.00" probability="0.29451863515591253" route="r_24"/>
   <flow id="f_7_25" begin="198.00" end="228.00" probability="0.005668755681727422" route="r_25"/>
   <flow id="f_7_26" begin="198.00" end="228.00" probability="0.20620380549058492" route="r_26"/>
   <flow id="f_7_27" begin="198.00" end="228.00" probability="0.10099425127355395" route="r_27"/>
   <flow id="f_7_28" begin="198.00" end="228.00" probability="0.39224454495125016" route="r_28"/>
   <flow id="f_7_29" begin="198.00" end="228.00" probability="0.21381361616277417" route="r_29"/>
   <flow id="f_7_30" begin="198.00" end="228.00" probability="0.07979105376402079" route="r_30"/>
   <flow id="f_7_31" begin="198.00" end="228.00" probability="0.2614978595109811" route="r_31"/>
</routes>