<?xml version="1.0" encoding="UTF-8"?>

<!-- generated on 2024-08-16 20:37:26 by Eclipse SUMO netedit Version 1.17.0
<configuration xmlns:xsi="http://www.w3.org/2001/XMLSchema-instance" xsi:noNamespaceSchemaLocation="http://sumo.dlr.de/xsd/netconvertConfiguration.xsd">

    <input>
        <route-files value="D:\inż\inzz\inzz\quad_cross\rou_1.rou.xml"/>
        <sumo-net-file value="D:\inż\inzz\inzz\quad_cross\quad_static_offset.net.xml"/>
    </input>

    <output>
        <output-file value="D:\inż\inzz\inzz\quad_cross\quad_static_offset.net.xml"/>
    </output>

    <processing>
        <geometry.min-radius.fix.railways value="false"/>
        <geometry.max-grade.fix value="false"/>
        <offset.disable-normalization value="true"/>
        <lefthand value="0"/>
    </processing>

    <junctions>
        <no-turnarounds value="true"/>
        <junctions.corner-detail value="5"/>
        <junctions.limit-turn-speed value="5.50"/>
        <rectangular-lane-cut value="0"/>
    </junctions>

    <pedestrian>
        <walkingareas value="0"/>
    </pedestrian>

</configuration>
-->

<net version="1.16" junctionCornerDetail="5" limitTurnSpeed="5.50" xmlns:xsi="http://www.w3.org/2001/XMLSchema-instance" xsi:noNamespaceSchemaLocation="http://sumo.dlr.de/xsd/net_file.xsd">

    <location netOffset="0.00,0.00" convBoundary="0.00,1000.00,5500.00,5500.00" origBoundary="0.00,0.00,5500.00,5500.00" projParameter="!"/>

    <edge id=":B4_0" function="internal">
        <lane id=":B4_0_0" index="0" speed="13.89" length="3.00" shape="498.50,1998.40 501.50,1998.40"/>
    </edge>
    <edge id=":B5_0" function="internal">
        <lane id=":B5_0_0" index="0" speed="13.89" length="3.00" shape="498.50,2498.40 501.50,2498.40"/>
    </edge>
    <edge id=":B8_0" function="internal">
        <lane id=":B8_0_0" index="0" speed="13.89" length="3.00" shape="498.50,3998.40 501.50,3998.40"/>
    </edge>
    <edge id=":B9_0" function="internal">
        <lane id=":B9_0_0" index="0" speed="13.89" length="3.00" shape="498.50,4498.40 501.50,4498.40"/>
    </edge>
    <edge id=":C10_0" function="internal">
        <lane id=":C10_0_0" index="0" speed="13.89" length="3.00" shape="998.40,5001.50 998.40,4998.50"/>
    </edge>
    <edge id=":C3_0" function="internal">
        <lane id=":C3_0_0" index="0" speed="13.89" length="3.00" shape="1001.60,1498.50 1001.60,1501.50"/>
    </edge>
    <edge id=":C4_0" function="internal">
        <lane id=":C4_0_0" index="0" speed="13.89" length="14.40" shape="998.40,2007.20 998.40,1992.80"/>
    </edge>
    <edge id=":C4_1" function="internal">
        <lane id=":C4_1_0" index="0" speed="13.89" length="14.40" shape="1007.20,2001.60 992.80,2001.60"/>
    </edge>
    <edge id=":C4_2" function="internal">
        <lane id=":C4_2_0" index="0" speed="13.89" length="14.40" shape="1001.60,1992.80 1001.60,2007.20"/>
    </edge>
    <edge id=":C4_3" function="internal">
        <lane id=":C4_3_0" index="0" speed="13.89" length="14.40" shape="992.80,1998.40 1007.20,1998.40"/>
    </edge>
    <edge id=":C5_0" function="internal">
        <lane id=":C5_0_0" index="0" speed="13.89" length="14.40" shape="998.40,2507.20 998.40,2492.80"/>
    </edge>
    <edge id=":C5_1" function="internal">
        <lane id=":C5_1_0" index="0" speed="13.89" length="14.40" shape="1007.20,2501.60 992.80,2501.60"/>
    </edge>
    <edge id=":C5_2" function="internal">
        <lane id=":C5_2_0" index="0" speed="13.89" length="14.40" shape="1001.60,2492.80 1001.60,2507.20"/>
    </edge>
    <edge id=":C5_3" function="internal">
        <lane id=":C5_3_0" index="0" speed="13.89" length="14.40" shape="992.80,2498.40 1007.20,2498.40"/>
    </edge>
    <edge id=":C6_0" function="internal">
        <lane id=":C6_0_0" index="0" speed="13.89" length="0.10" shape="998.40,3000.00 998.40,3000.00"/>
    </edge>
    <edge id=":C7_0" function="internal">
        <lane id=":C7_0_0" index="0" speed="13.89" length="0.10" shape="1001.60,3500.00 1001.60,3500.00"/>
    </edge>
    <edge id=":C8_0" function="internal">
        <lane id=":C8_0_0" index="0" speed="13.89" length="14.40" shape="998.40,4007.20 998.40,3992.80"/>
    </edge>
    <edge id=":C8_1" function="internal">
        <lane id=":C8_1_0" index="0" speed="13.89" length="14.40" shape="1007.20,4001.60 992.80,4001.60"/>
    </edge>
    <edge id=":C8_2" function="internal">
        <lane id=":C8_2_0" index="0" speed="13.89" length="14.40" shape="1001.60,3992.80 1001.60,4007.20"/>
    </edge>
    <edge id=":C8_3" function="internal">
        <lane id=":C8_3_0" index="0" speed="13.89" length="14.40" shape="992.80,3998.40 1007.20,3998.40"/>
    </edge>
    <edge id=":C9_0" function="internal">
        <lane id=":C9_0_0" index="0" speed="13.89" length="14.40" shape="998.40,4507.20 998.40,4492.80"/>
    </edge>
    <edge id=":C9_1" function="internal">
        <lane id=":C9_1_0" index="0" speed="13.89" length="14.40" shape="1007.20,4501.60 992.80,4501.60"/>
    </edge>
    <edge id=":C9_2" function="internal">
        <lane id=":C9_2_0" index="0" speed="13.89" length="14.40" shape="1001.60,4492.80 1001.60,4507.20"/>
    </edge>
    <edge id=":C9_3" function="internal">
        <lane id=":C9_3_0" index="0" speed="13.89" length="14.40" shape="992.80,4498.40 1007.20,4498.40"/>
    </edge>
    <edge id=":D10_0" function="internal">
        <lane id=":D10_0_0" index="0" speed="13.89" length="3.00" shape="1498.40,5001.50 1498.40,4998.50"/>
    </edge>
    <edge id=":D3_0" function="internal">
        <lane id=":D3_0_0" index="0" speed="13.89" length="3.00" shape="1501.60,1498.50 1501.60,1501.50"/>
    </edge>
    <edge id=":D4_0" function="internal">
        <lane id=":D4_0_0" index="0" speed="13.89" length="14.40" shape="1498.40,2007.20 1498.40,1992.80"/>
    </edge>
    <edge id=":D4_1" function="internal">
        <lane id=":D4_1_0" index="0" speed="13.89" length="14.40" shape="1507.20,2001.60 1492.80,2001.60"/>
    </edge>
    <edge id=":D4_2" function="internal">
        <lane id=":D4_2_0" index="0" speed="13.89" length="14.40" shape="1501.60,1992.80 1501.60,2007.20"/>
    </edge>
    <edge id=":D4_3" function="internal">
        <lane id=":D4_3_0" index="0" speed="13.89" length="14.40" shape="1492.80,1998.40 1507.20,1998.40"/>
    </edge>
    <edge id=":D5_0" function="internal">
        <lane id=":D5_0_0" index="0" speed="13.89" length="14.40" shape="1498.40,2507.20 1498.40,2492.80"/>
    </edge>
    <edge id=":D5_1" function="internal">
        <lane id=":D5_1_0" index="0" speed="13.89" length="14.40" shape="1507.20,2501.60 1492.80,2501.60"/>
    </edge>
    <edge id=":D5_2" function="internal">
        <lane id=":D5_2_0" index="0" speed="13.89" length="14.40" shape="1501.60,2492.80 1501.60,2507.20"/>
    </edge>
    <edge id=":D5_3" function="internal">
        <lane id=":D5_3_0" index="0" speed="13.89" length="14.40" shape="1492.80,2498.40 1507.20,2498.40"/>
    </edge>
    <edge id=":D6_0" function="internal">
        <lane id=":D6_0_0" index="0" speed="13.89" length="0.10" shape="1498.40,3000.00 1498.40,3000.00"/>
    </edge>
    <edge id=":D7_0" function="internal">
        <lane id=":D7_0_0" index="0" speed="13.89" length="0.10" shape="1501.60,3500.00 1501.60,3500.00"/>
    </edge>
    <edge id=":D8_0" function="internal">
        <lane id=":D8_0_0" index="0" speed="13.89" length="14.40" shape="1498.40,4007.20 1498.40,3992.80"/>
    </edge>
    <edge id=":D8_1" function="internal">
        <lane id=":D8_1_0" index="0" speed="13.89" length="14.40" shape="1507.20,4001.60 1492.80,4001.60"/>
    </edge>
    <edge id=":D8_2" function="internal">
        <lane id=":D8_2_0" index="0" speed="13.89" length="14.40" shape="1501.60,3992.80 1501.60,4007.20"/>
    </edge>
    <edge id=":D8_3" function="internal">
        <lane id=":D8_3_0" index="0" speed="13.89" length="14.40" shape="1492.80,3998.40 1507.20,3998.40"/>
    </edge>
    <edge id=":D9_0" function="internal">
        <lane id=":D9_0_0" index="0" speed="13.89" length="14.40" shape="1498.40,4507.20 1498.40,4492.80"/>
    </edge>
    <edge id=":D9_1" function="internal">
        <lane id=":D9_1_0" index="0" speed="13.89" length="14.40" shape="1507.20,4501.60 1492.80,4501.60"/>
    </edge>
    <edge id=":D9_2" function="internal">
        <lane id=":D9_2_0" index="0" speed="13.89" length="14.40" shape="1501.60,4492.80 1501.60,4507.20"/>
    </edge>
    <edge id=":D9_3" function="internal">
        <lane id=":D9_3_0" index="0" speed="13.89" length="14.40" shape="1492.80,4498.40 1507.20,4498.40"/>
    </edge>
    <edge id=":E4_0" function="internal">
        <lane id=":E4_0_0" index="0" speed="13.89" length="0.10" shape="2000.00,2001.60 2000.00,2001.60"/>
    </edge>
    <edge id=":E5_0" function="internal">
        <lane id=":E5_0_0" index="0" speed="13.89" length="0.10" shape="2000.00,2501.60 2000.00,2501.60"/>
    </edge>
    <edge id=":E8_0" function="internal">
        <lane id=":E8_0_0" index="0" speed="13.89" length="0.10" shape="2000.00,4001.60 2000.00,4001.60"/>
    </edge>
    <edge id=":E9_0" function="internal">
        <lane id=":E9_0_0" index="0" speed="13.89" length="0.10" shape="2000.00,4501.60 2000.00,4501.60"/>
    </edge>
    <edge id=":F4_0" function="internal">
        <lane id=":F4_0_0" index="0" speed="13.89" length="0.10" shape="2500.00,1998.40 2500.00,1998.40"/>
    </edge>
    <edge id=":F5_0" function="internal">
        <lane id=":F5_0_0" index="0" speed="13.89" length="0.10" shape="2500.00,2498.40 2500.00,2498.40"/>
    </edge>
    <edge id=":F8_0" function="internal">
        <lane id=":F8_0_0" index="0" speed="13.89" length="0.10" shape="2500.00,3998.40 2500.00,3998.40"/>
    </edge>
    <edge id=":F9_0" function="internal">
        <lane id=":F9_0_0" index="0" speed="13.89" length="0.10" shape="2500.00,4498.40 2500.00,4498.40"/>
    </edge>
    <edge id=":G10_0" function="internal">
        <lane id=":G10_0_0" index="0" speed="13.89" length="3.00" shape="2998.40,5001.50 2998.40,4998.50"/>
    </edge>
    <edge id=":G3_0" function="internal">
        <lane id=":G3_0_0" index="0" speed="13.89" length="3.00" shape="3001.60,1498.50 3001.60,1501.50"/>
    </edge>
    <edge id=":G4_0" function="internal">
        <lane id=":G4_0_0" index="0" speed="13.89" length="14.40" shape="2998.40,2007.20 2998.40,1992.80"/>
    </edge>
    <edge id=":G4_1" function="internal">
        <lane id=":G4_1_0" index="0" speed="13.89" length="14.40" shape="3007.20,2001.60 2992.80,2001.60"/>
    </edge>
    <edge id=":G4_2" function="internal">
        <lane id=":G4_2_0" index="0" speed="13.89" length="14.40" shape="3001.60,1992.80 3001.60,2007.20"/>
    </edge>
    <edge id=":G4_3" function="internal">
        <lane id=":G4_3_0" index="0" speed="13.89" length="14.40" shape="2992.80,1998.40 3007.20,1998.40"/>
    </edge>
    <edge id=":G5_0" function="internal">
        <lane id=":G5_0_0" index="0" speed="13.89" length="14.40" shape="2998.40,2507.20 2998.40,2492.80"/>
    </edge>
    <edge id=":G5_1" function="internal">
        <lane id=":G5_1_0" index="0" speed="13.89" length="14.40" shape="3007.20,2501.60 2992.80,2501.60"/>
    </edge>
    <edge id=":G5_2" function="internal">
        <lane id=":G5_2_0" index="0" speed="13.89" length="14.40" shape="3001.60,2492.80 3001.60,2507.20"/>
    </edge>
    <edge id=":G5_3" function="internal">
        <lane id=":G5_3_0" index="0" speed="13.89" length="14.40" shape="2992.80,2498.40 3007.20,2498.40"/>
    </edge>
    <edge id=":G6_0" function="internal">
        <lane id=":G6_0_0" index="0" speed="13.89" length="0.10" shape="2998.40,3000.00 2998.40,3000.00"/>
    </edge>
    <edge id=":G7_0" function="internal">
        <lane id=":G7_0_0" index="0" speed="13.89" length="0.10" shape="3001.60,3500.00 3001.60,3500.00"/>
    </edge>
    <edge id=":G8_0" function="internal">
        <lane id=":G8_0_0" index="0" speed="13.89" length="14.40" shape="2998.40,4007.20 2998.40,3992.80"/>
    </edge>
    <edge id=":G8_1" function="internal">
        <lane id=":G8_1_0" index="0" speed="13.89" length="14.40" shape="3007.20,4001.60 2992.80,4001.60"/>
    </edge>
    <edge id=":G8_2" function="internal">
        <lane id=":G8_2_0" index="0" speed="13.89" length="14.40" shape="3001.60,3992.80 3001.60,4007.20"/>
    </edge>
    <edge id=":G8_3" function="internal">
        <lane id=":G8_3_0" index="0" speed="13.89" length="14.40" shape="2992.80,3998.40 3007.20,3998.40"/>
    </edge>
    <edge id=":G9_0" function="internal">
        <lane id=":G9_0_0" index="0" speed="13.89" length="14.40" shape="2998.40,4507.20 2998.40,4492.80"/>
    </edge>
    <edge id=":G9_1" function="internal">
        <lane id=":G9_1_0" index="0" speed="13.89" length="14.40" shape="3007.20,4501.60 2992.80,4501.60"/>
    </edge>
    <edge id=":G9_2" function="internal">
        <lane id=":G9_2_0" index="0" speed="13.89" length="14.40" shape="3001.60,4492.80 3001.60,4507.20"/>
    </edge>
    <edge id=":G9_3" function="internal">
        <lane id=":G9_3_0" index="0" speed="13.89" length="14.40" shape="2992.80,4498.40 3007.20,4498.40"/>
    </edge>
    <edge id=":H10_0" function="internal">
        <lane id=":H10_0_0" index="0" speed="13.89" length="3.00" shape="3498.40,5001.50 3498.40,4998.50"/>
    </edge>
    <edge id=":H3_0" function="internal">
        <lane id=":H3_0_0" index="0" speed="13.89" length="3.00" shape="3501.60,1498.50 3501.60,1501.50"/>
    </edge>
    <edge id=":H4_0" function="internal">
        <lane id=":H4_0_0" index="0" speed="13.89" length="14.40" shape="3498.40,2007.20 3498.40,1992.80"/>
    </edge>
    <edge id=":H4_1" function="internal">
        <lane id=":H4_1_0" index="0" speed="13.89" length="14.40" shape="3507.20,2001.60 3492.80,2001.60"/>
    </edge>
    <edge id=":H4_2" function="internal">
        <lane id=":H4_2_0" index="0" speed="13.89" length="14.40" shape="3501.60,1992.80 3501.60,2007.20"/>
    </edge>
    <edge id=":H4_3" function="internal">
        <lane id=":H4_3_0" index="0" speed="13.89" length="14.40" shape="3492.80,1998.40 3507.20,1998.40"/>
    </edge>
    <edge id=":H5_0" function="internal">
        <lane id=":H5_0_0" index="0" speed="13.89" length="14.40" shape="3498.40,2507.20 3498.40,2492.80"/>
    </edge>
    <edge id=":H5_1" function="internal">
        <lane id=":H5_1_0" index="0" speed="13.89" length="14.40" shape="3507.20,2501.60 3492.80,2501.60"/>
    </edge>
    <edge id=":H5_2" function="internal">
        <lane id=":H5_2_0" index="0" speed="13.89" length="14.40" shape="3501.60,2492.80 3501.60,2507.20"/>
    </edge>
    <edge id=":H5_3" function="internal">
        <lane id=":H5_3_0" index="0" speed="13.89" length="14.40" shape="3492.80,2498.40 3507.20,2498.40"/>
    </edge>
    <edge id=":H6_0" function="internal">
        <lane id=":H6_0_0" index="0" speed="13.89" length="0.10" shape="3498.40,3000.00 3498.40,3000.00"/>
    </edge>
    <edge id=":H7_0" function="internal">
        <lane id=":H7_0_0" index="0" speed="13.89" length="0.10" shape="3501.60,3500.00 3501.60,3500.00"/>
    </edge>
    <edge id=":H8_0" function="internal">
        <lane id=":H8_0_0" index="0" speed="13.89" length="14.40" shape="3498.40,4007.20 3498.40,3992.80"/>
    </edge>
    <edge id=":H8_1" function="internal">
        <lane id=":H8_1_0" index="0" speed="13.89" length="14.40" shape="3507.20,4001.60 3492.80,4001.60"/>
    </edge>
    <edge id=":H8_2" function="internal">
        <lane id=":H8_2_0" index="0" speed="13.89" length="14.40" shape="3501.60,3992.80 3501.60,4007.20"/>
    </edge>
    <edge id=":H8_3" function="internal">
        <lane id=":H8_3_0" index="0" speed="13.89" length="14.40" shape="3492.80,3998.40 3507.20,3998.40"/>
    </edge>
    <edge id=":H9_0" function="internal">
        <lane id=":H9_0_0" index="0" speed="13.89" length="14.40" shape="3498.40,4507.20 3498.40,4492.80"/>
    </edge>
    <edge id=":H9_1" function="internal">
        <lane id=":H9_1_0" index="0" speed="13.89" length="14.40" shape="3507.20,4501.60 3492.80,4501.60"/>
    </edge>
    <edge id=":H9_2" function="internal">
        <lane id=":H9_2_0" index="0" speed="13.89" length="14.40" shape="3501.60,4492.80 3501.60,4507.20"/>
    </edge>
    <edge id=":H9_3" function="internal">
        <lane id=":H9_3_0" index="0" speed="13.89" length="14.40" shape="3492.80,4498.40 3507.20,4498.40"/>
    </edge>
    <edge id=":I4_0" function="internal">
        <lane id=":I4_0_0" index="0" speed="13.89" length="3.00" shape="4001.50,2001.60 3998.50,2001.60"/>
    </edge>
    <edge id=":I5_0" function="internal">
        <lane id=":I5_0_0" index="0" speed="13.89" length="3.00" shape="4001.50,2501.60 3998.50,2501.60"/>
    </edge>
    <edge id=":I8_0" function="internal">
        <lane id=":I8_0_0" index="0" speed="13.89" length="3.00" shape="4001.50,4001.60 3998.50,4001.60"/>
    </edge>
    <edge id=":I9_0" function="internal">
        <lane id=":I9_0_0" index="0" speed="13.89" length="3.00" shape="4001.50,4501.60 3998.50,4501.60"/>
    </edge>

    <edge id="A4B4" from="A4" to="B4" priority="-1">
        <lane id="A4B4_0" index="0" speed="13.89" length="498.50" shape="0.00,1998.40 498.50,1998.40"/>
    </edge>
    <edge id="A5B5" from="A5" to="B5" priority="-1">
        <lane id="A5B5_0" index="0" speed="13.89" length="498.50" shape="0.00,2498.40 498.50,2498.40"/>
    </edge>
    <edge id="A8B8" from="A8" to="B8" priority="-1">
        <lane id="A8B8_0" index="0" speed="13.89" length="498.50" shape="0.00,3998.40 498.50,3998.40"/>
    </edge>
    <edge id="A9B9" from="A9" to="B9" priority="-1">
        <lane id="A9B9_0" index="0" speed="13.89" length="498.50" shape="0.00,4498.40 498.50,4498.40"/>
    </edge>
    <edge id="B4C4" from="B4" to="C4" priority="-1">
        <lane id="B4C4_0" index="0" speed="13.89" length="491.30" shape="501.50,1998.40 992.80,1998.40"/>
    </edge>
    <edge id="B5C5" from="B5" to="C5" priority="-1">
        <lane id="B5C5_0" index="0" speed="13.89" length="491.30" shape="501.50,2498.40 992.80,2498.40"/>
    </edge>
    <edge id="B8C8" from="B8" to="C8" priority="-1">
        <lane id="B8C8_0" index="0" speed="13.89" length="491.30" shape="501.50,3998.40 992.80,3998.40"/>
    </edge>
    <edge id="B9C9" from="B9" to="C9" priority="-1">
        <lane id="B9C9_0" index="0" speed="13.89" length="491.30" shape="501.50,4498.40 992.80,4498.40"/>
    </edge>
    <edge id="C10C9" from="C10" to="C9" priority="-1">
        <lane id="C10C9_0" index="0" speed="13.89" length="491.30" shape="998.40,4998.50 998.40,4507.20"/>
    </edge>
    <edge id="C11C10" from="C11" to="C10" priority="-1">
        <lane id="C11C10_0" index="0" speed="13.89" length="498.50" shape="998.40,5500.00 998.40,5001.50"/>
    </edge>
    <edge id="C2C3" from="C2" to="C3" priority="-1">
        <lane id="C2C3_0" index="0" speed="13.89" length="498.50" shape="1001.60,1000.00 1001.60,1498.50"/>
    </edge>
    <edge id="C3C4" from="C3" to="C4" priority="-1">
        <lane id="C3C4_0" index="0" speed="13.89" length="491.30" shape="1001.60,1501.50 1001.60,1992.80"/>
    </edge>
    <edge id="C4B4" from="C4" to="B4" priority="-1">
        <lane id="C4B4_0" index="0" speed="13.89" length="491.30" shape="992.80,2001.60 501.50,2001.60"/>
    </edge>
    <edge id="C4C3" from="C4" to="C3" priority="-1">
        <lane id="C4C3_0" index="0" speed="13.89" length="491.30" shape="998.40,1992.80 998.40,1501.50"/>
    </edge>
    <edge id="C4C5" from="C4" to="C5" priority="-1">
        <lane id="C4C5_0" index="0" speed="13.89" length="485.60" shape="1001.60,2007.20 1001.60,2492.80"/>
    </edge>
    <edge id="C4D4" from="C4" to="D4" priority="-1">
        <lane id="C4D4_0" index="0" speed="13.89" length="485.60" shape="1007.20,1998.40 1492.80,1998.40"/>
    </edge>
    <edge id="C5B5" from="C5" to="B5" priority="-1">
        <lane id="C5B5_0" index="0" speed="13.89" length="491.30" shape="992.80,2501.60 501.50,2501.60"/>
    </edge>
    <edge id="C5C4" from="C5" to="C4" priority="-1">
        <lane id="C5C4_0" index="0" speed="13.89" length="485.60" shape="998.40,2492.80 998.40,2007.20"/>
    </edge>
    <edge id="C5C6" from="C5" to="C6" priority="-1">
        <lane id="C5C6_0" index="0" speed="13.89" length="492.80" shape="1001.60,2507.20 1001.60,3000.00"/>
    </edge>
    <edge id="C5D5" from="C5" to="D5" priority="-1">
        <lane id="C5D5_0" index="0" speed="13.89" length="485.60" shape="1007.20,2498.40 1492.80,2498.40"/>
    </edge>
    <edge id="C6C5" from="C6" to="C5" priority="-1">
        <lane id="C6C5_0" index="0" speed="13.89" length="492.80" shape="998.40,3000.00 998.40,2507.20"/>
    </edge>
    <edge id="C6C7" from="C6" to="C7" priority="-1">
        <lane id="C6C7_0" index="0" speed="13.89" length="500.00" shape="1001.60,3000.00 1001.60,3500.00"/>
    </edge>
    <edge id="C7C6" from="C7" to="C6" priority="-1">
        <lane id="C7C6_0" index="0" speed="13.89" length="500.00" shape="998.40,3500.00 998.40,3000.00"/>
    </edge>
    <edge id="C7C8" from="C7" to="C8" priority="-1">
        <lane id="C7C8_0" index="0" speed="13.89" length="492.80" shape="1001.60,3500.00 1001.60,3992.80"/>
    </edge>
    <edge id="C8B8" from="C8" to="B8" priority="-1">
        <lane id="C8B8_0" index="0" speed="13.89" length="491.30" shape="992.80,4001.60 501.50,4001.60"/>
    </edge>
    <edge id="C8C7" from="C8" to="C7" priority="-1">
        <lane id="C8C7_0" index="0" speed="13.89" length="492.80" shape="998.40,3992.80 998.40,3500.00"/>
    </edge>
    <edge id="C8C9" from="C8" to="C9" priority="-1">
        <lane id="C8C9_0" index="0" speed="13.89" length="485.60" shape="1001.60,4007.20 1001.60,4492.80"/>
    </edge>
    <edge id="C8D8" from="C8" to="D8" priority="-1">
        <lane id="C8D8_0" index="0" speed="13.89" length="485.60" shape="1007.20,3998.40 1492.80,3998.40"/>
    </edge>
    <edge id="C9B9" from="C9" to="B9" priority="-1">
        <lane id="C9B9_0" index="0" speed="13.89" length="491.30" shape="992.80,4501.60 501.50,4501.60"/>
    </edge>
    <edge id="C9C10" from="C9" to="C10" priority="-1">
        <lane id="C9C10_0" index="0" speed="13.89" length="491.30" shape="1001.60,4507.20 1001.60,4998.50"/>
    </edge>
    <edge id="C9C8" from="C9" to="C8" priority="-1">
        <lane id="C9C8_0" index="0" speed="13.89" length="485.60" shape="998.40,4492.80 998.40,4007.20"/>
    </edge>
    <edge id="C9D9" from="C9" to="D9" priority="-1">
        <lane id="C9D9_0" index="0" speed="13.89" length="485.60" shape="1007.20,4498.40 1492.80,4498.40"/>
    </edge>
    <edge id="D10D9" from="D10" to="D9" priority="-1">
        <lane id="D10D9_0" index="0" speed="13.89" length="491.30" shape="1498.40,4998.50 1498.40,4507.20"/>
    </edge>
    <edge id="D11D10" from="D11" to="D10" priority="-1">
        <lane id="D11D10_0" index="0" speed="13.89" length="498.50" shape="1498.40,5500.00 1498.40,5001.50"/>
    </edge>
    <edge id="D2D3" from="D2" to="D3" priority="-1">
        <lane id="D2D3_0" index="0" speed="13.89" length="498.50" shape="1501.60,1000.00 1501.60,1498.50"/>
    </edge>
    <edge id="D3D4" from="D3" to="D4" priority="-1">
        <lane id="D3D4_0" index="0" speed="13.89" length="491.30" shape="1501.60,1501.50 1501.60,1992.80"/>
    </edge>
    <edge id="D4C4" from="D4" to="C4" priority="-1">
        <lane id="D4C4_0" index="0" speed="13.89" length="485.60" shape="1492.80,2001.60 1007.20,2001.60"/>
    </edge>
    <edge id="D4D3" from="D4" to="D3" priority="-1">
        <lane id="D4D3_0" index="0" speed="13.89" length="491.30" shape="1498.40,1992.80 1498.40,1501.50"/>
    </edge>
    <edge id="D4D5" from="D4" to="D5" priority="-1">
        <lane id="D4D5_0" index="0" speed="13.89" length="485.60" shape="1501.60,2007.20 1501.60,2492.80"/>
    </edge>
    <edge id="D4E4" from="D4" to="E4" priority="-1">
        <lane id="D4E4_0" index="0" speed="13.89" length="492.80" shape="1507.20,1998.40 2000.00,1998.40"/>
    </edge>
    <edge id="D5C5" from="D5" to="C5" priority="-1">
        <lane id="D5C5_0" index="0" speed="13.89" length="485.60" shape="1492.80,2501.60 1007.20,2501.60"/>
    </edge>
    <edge id="D5D4" from="D5" to="D4" priority="-1">
        <lane id="D5D4_0" index="0" speed="13.89" length="485.60" shape="1498.40,2492.80 1498.40,2007.20"/>
    </edge>
    <edge id="D5D6" from="D5" to="D6" priority="-1">
        <lane id="D5D6_0" index="0" speed="13.89" length="492.80" shape="1501.60,2507.20 1501.60,3000.00"/>
    </edge>
    <edge id="D5E5" from="D5" to="E5" priority="-1">
        <lane id="D5E5_0" index="0" speed="13.89" length="492.80" shape="1507.20,2498.40 2000.00,2498.40"/>
    </edge>
    <edge id="D6D5" from="D6" to="D5" priority="-1">
        <lane id="D6D5_0" index="0" speed="13.89" length="492.80" shape="1498.40,3000.00 1498.40,2507.20"/>
    </edge>
    <edge id="D6D7" from="D6" to="D7" priority="-1">
        <lane id="D6D7_0" index="0" speed="13.89" length="500.00" shape="1501.60,3000.00 1501.60,3500.00"/>
    </edge>
    <edge id="D7D6" from="D7" to="D6" priority="-1">
        <lane id="D7D6_0" index="0" speed="13.89" length="500.00" shape="1498.40,3500.00 1498.40,3000.00"/>
    </edge>
    <edge id="D7D8" from="D7" to="D8" priority="-1">
        <lane id="D7D8_0" index="0" speed="13.89" length="492.80" shape="1501.60,3500.00 1501.60,3992.80"/>
    </edge>
    <edge id="D8C8" from="D8" to="C8" priority="-1">
        <lane id="D8C8_0" index="0" speed="13.89" length="485.60" shape="1492.80,4001.60 1007.20,4001.60"/>
    </edge>
    <edge id="D8D7" from="D8" to="D7" priority="-1">
        <lane id="D8D7_0" index="0" speed="13.89" length="492.80" shape="1498.40,3992.80 1498.40,3500.00"/>
    </edge>
    <edge id="D8D9" from="D8" to="D9" priority="-1">
        <lane id="D8D9_0" index="0" speed="13.89" length="485.60" shape="1501.60,4007.20 1501.60,4492.80"/>
    </edge>
    <edge id="D8E8" from="D8" to="E8" priority="-1">
        <lane id="D8E8_0" index="0" speed="13.89" length="492.80" shape="1507.20,3998.40 2000.00,3998.40"/>
    </edge>
    <edge id="D9C9" from="D9" to="C9" priority="-1">
        <lane id="D9C9_0" index="0" speed="13.89" length="485.60" shape="1492.80,4501.60 1007.20,4501.60"/>
    </edge>
    <edge id="D9D10" from="D9" to="D10" priority="-1">
        <lane id="D9D10_0" index="0" speed="13.89" length="491.30" shape="1501.60,4507.20 1501.60,4998.50"/>
    </edge>
    <edge id="D9D8" from="D9" to="D8" priority="-1">
        <lane id="D9D8_0" index="0" speed="13.89" length="485.60" shape="1498.40,4492.80 1498.40,4007.20"/>
    </edge>
    <edge id="D9E9" from="D9" to="E9" priority="-1">
        <lane id="D9E9_0" index="0" speed="13.89" length="492.80" shape="1507.20,4498.40 2000.00,4498.40"/>
    </edge>
    <edge id="E4D4" from="E4" to="D4" priority="-1">
        <lane id="E4D4_0" index="0" speed="13.89" length="492.80" shape="2000.00,2001.60 1507.20,2001.60"/>
    </edge>
    <edge id="E4F4" from="E4" to="F4" priority="-1">
        <lane id="E4F4_0" index="0" speed="13.89" length="500.00" shape="2000.00,1998.40 2500.00,1998.40"/>
    </edge>
    <edge id="E5D5" from="E5" to="D5" priority="-1">
        <lane id="E5D5_0" index="0" speed="13.89" length="492.80" shape="2000.00,2501.60 1507.20,2501.60"/>
    </edge>
    <edge id="E5F5" from="E5" to="F5" priority="-1">
        <lane id="E5F5_0" index="0" speed="13.89" length="500.00" shape="2000.00,2498.40 2500.00,2498.40"/>
    </edge>
    <edge id="E8D8" from="E8" to="D8" priority="-1">
        <lane id="E8D8_0" index="0" speed="13.89" length="492.80" shape="2000.00,4001.60 1507.20,4001.60"/>
    </edge>
    <edge id="E8F8" from="E8" to="F8" priority="-1">
        <lane id="E8F8_0" index="0" speed="13.89" length="500.00" shape="2000.00,3998.40 2500.00,3998.40"/>
    </edge>
    <edge id="E9D9" from="E9" to="D9" priority="-1">
        <lane id="E9D9_0" index="0" speed="13.89" length="492.80" shape="2000.00,4501.60 1507.20,4501.60"/>
    </edge>
    <edge id="E9F9" from="E9" to="F9" priority="-1">
        <lane id="E9F9_0" index="0" speed="13.89" length="500.00" shape="2000.00,4498.40 2500.00,4498.40"/>
    </edge>
    <edge id="F4E4" from="F4" to="E4" priority="-1">
        <lane id="F4E4_0" index="0" speed="13.89" length="500.00" shape="2500.00,2001.60 2000.00,2001.60"/>
    </edge>
    <edge id="F4G4" from="F4" to="G4" priority="-1">
        <lane id="F4G4_0" index="0" speed="13.89" length="492.80" shape="2500.00,1998.40 2992.80,1998.40"/>
    </edge>
    <edge id="F5E5" from="F5" to="E5" priority="-1">
        <lane id="F5E5_0" index="0" speed="13.89" length="500.00" shape="2500.00,2501.60 2000.00,2501.60"/>
    </edge>
    <edge id="F5G5" from="F5" to="G5" priority="-1">
        <lane id="F5G5_0" index="0" speed="13.89" length="492.80" shape="2500.00,2498.40 2992.80,2498.40"/>
    </edge>
    <edge id="F8E8" from="F8" to="E8" priority="-1">
        <lane id="F8E8_0" index="0" speed="13.89" length="500.00" shape="2500.00,4001.60 2000.00,4001.60"/>
    </edge>
    <edge id="F8G8" from="F8" to="G8" priority="-1">
        <lane id="F8G8_0" index="0" speed="13.89" length="492.80" shape="2500.00,3998.40 2992.80,3998.40"/>
    </edge>
    <edge id="F9E9" from="F9" to="E9" priority="-1">
        <lane id="F9E9_0" index="0" speed="13.89" length="500.00" shape="2500.00,4501.60 2000.00,4501.60"/>
    </edge>
    <edge id="F9G9" from="F9" to="G9" priority="-1">
        <lane id="F9G9_0" index="0" speed="13.89" length="492.80" shape="2500.00,4498.40 2992.80,4498.40"/>
    </edge>
    <edge id="G10G9" from="G10" to="G9" priority="-1">
        <lane id="G10G9_0" index="0" speed="13.89" length="491.30" shape="2998.40,4998.50 2998.40,4507.20"/>
    </edge>
    <edge id="G11G10" from="G11" to="G10" priority="-1">
        <lane id="G11G10_0" index="0" speed="13.89" length="498.50" shape="2998.40,5500.00 2998.40,5001.50"/>
    </edge>
    <edge id="G2G3" from="G2" to="G3" priority="-1">
        <lane id="G2G3_0" index="0" speed="13.89" length="498.50" shape="3001.60,1000.00 3001.60,1498.50"/>
    </edge>
    <edge id="G3G4" from="G3" to="G4" priority="-1">