<?xml version="1.0" encoding="UTF-8"?>

<!-- generated on 2024-01-16 22:42:24 by Eclipse SUMO netedit Version 1.17.0
<configuration xmlns:xsi="http://www.w3.org/2001/XMLSchema-instance" xsi:noNamespaceSchemaLocation="http://sumo.dlr.de/xsd/netconvertConfiguration.xsd">

    <input>
        <sumo-net-file value="D:\sumo\inż\badania\single_cross_diffrent\single_cross_500_actuated.net.xml"/>
    </input>

    <output>
        <output-file value="D:\sumo\inż\badania\single_cross_diffrent\single_cross_500_actuated.net.xml"/>
    </output>

    <processing>
        <geometry.min-radius.fix.railways value="false"/>
        <geometry.max-grade.fix value="false"/>
        <offset.disable-normalization value="true"/>
        <lefthand value="0"/>
    </processing>

    <junctions>
        <no-turnarounds value="true"/>
        <junctions.corner-detail value="5"/>
        <junctions.limit-turn-speed value="5.50"/>
        <rectangular-lane-cut value="0"/>
    </junctions>

    <pedestrian>
        <walkingareas value="0"/>
    </pedestrian>

</configuration>
-->

<net version="1.16" junctionCornerDetail="5" limitTurnSpeed="5.50" xmlns:xsi="http://www.w3.org/2001/XMLSchema-instance" xsi:noNamespaceSchemaLocation="http://sumo.dlr.de/xsd/net_file.xsd">

    <location netOffset="0.00,0.00" convBoundary="0.00,0.00,2000.00,2000.00" origBoundary="0.00,0.00,2000.00,2000.00" projParameter="!"/>

    <edge id=":A2_0" function="internal">
        <lane id=":A2_0_0" index="0" speed="3.65" length="4.67" shape="0.00,1001.60 -1.20,1000.80 -1.60,1000.00 -1.20,999.20 0.00,998.40"/>
    </edge>
    <edge id=":B2_0" function="internal">
        <lane id=":B2_0_0" index="0" speed="13.89" length="0.10" shape="500.00,1001.60 500.00,1001.60"/>
    </edge>
    <edge id=":B2_1" function="internal">
        <lane id=":B2_1_0" index="0" speed="3.65" length="2.34" shape="500.00,1001.60 498.80,1000.80 498.40,1000.00"/>
    </edge>
    <edge id=":B2_4" function="internal">
        <lane id=":B2_4_0" index="0" speed="3.65" length="2.34" shape="498.40,1000.00 498.80,999.20 500.00,998.40"/>
    </edge>
    <edge id=":B2_2" function="internal">
        <lane id=":B2_2_0" index="0" speed="13.89" length="0.10" shape="500.00,998.40 500.00,998.40"/>
    </edge>
    <edge id=":B2_3" function="internal">
        <lane id=":B2_3_0" index="0" speed="3.65" length="2.34" shape="500.00,998.40 501.20,999.20 501.60,1000.00"/>
    </edge>
    <edge id=":B2_5" function="internal">
        <lane id=":B2_5_0" index="0" speed="3.65" length="2.34" shape="501.60,1000.00 501.20,1000.80 500.00,1001.60"/>
    </edge>
    <edge id=":C0_0" function="internal">
        <lane id=":C0_0_0" index="0" speed="3.65" length="4.67" shape="998.40,0.00 999.20,-1.20 1000.00,-1.60 1000.80,-1.20 1001.60,0.00"/>
    </edge>
    <edge id=":C1_0" function="internal">
        <lane id=":C1_0_0" index="0" speed="13.89" length="0.10" shape="998.40,500.00 998.40,500.00"/>
    </edge>
    <edge id=":C1_1" function="internal">
        <lane id=":C1_1_0" index="0" speed="3.65" length="2.34" shape="998.40,500.00 999.20,498.80 1000.00,498.40"/>
    </edge>
    <edge id=":C1_4" function="internal">
        <lane id=":C1_4_0" index="0" speed="3.65" length="2.34" shape="1000.00,498.40 1000.80,498.80 1001.60,500.00"/>
    </edge>
    <edge id=":C1_2" function="internal">
        <lane id=":C1_2_0" index="0" speed="13.89" length="0.10" shape="1001.60,500.00 1001.60,500.00"/>
    </edge>
    <edge id=":C1_3" function="internal">
        <lane id=":C1_3_0" index="0" speed="3.65" length="2.34" shape="1001.60,500.00 1000.80,501.20 1000.00,501.60"/>
    </edge>
    <edge id=":C1_5" function="internal">
        <lane id=":C1_5_0" index="0" speed="3.65" length="2.34" shape="1000.00,501.60 999.20,501.20 998.40,500.00"/>
    </edge>
    <edge id=":C2_0" function="internal">
        <lane id=":C2_0_0" index="0" speed="6.51" length="9.03" shape="998.40,1007.20 998.05,1004.75 997.00,1003.00 995.25,1001.95 992.80,1001.60"/>
    </edge>
    <edge id=":C2_1" function="internal">
        <lane id=":C2_1_0" index="0" speed="13.89" length="14.40" shape="998.40,1007.20 998.40,992.80"/>
    </edge>
    <edge id=":C2_2" function="internal">
        <lane id=":C2_2_0" index="0" speed="8.00" length="4.07" shape="998.40,1007.20 998.95,1003.35 999.04,1003.20"/>
    </edge>
    <edge id=":C2_3" function="internal">
        <lane id=":C2_3_0" index="0" speed="3.65" length="1.44" shape="998.40,1007.20 999.20,1006.00"/>
    </edge>
    <edge id=":C2_16" function="internal">
        <lane id=":C2_16_0" index="0" speed="8.00" length="10.13" shape="999.04,1003.20 1000.60,1000.60 1003.35,998.95 1007.20,998.40"/>
    </edge>
    <edge id=":C2_17" function="internal">
        <lane id=":C2_17_0" index="0" speed="3.65" length="3.23" shape="999.20,1006.00 1000.00,1005.60 1000.80,1006.00 1001.60,1007.20"/>
    </edge>
    <edge id=":C2_4" function="internal">
        <lane id=":C2_4_0" index="0" speed="6.51" length="9.03" shape="1007.20,1001.60 1004.75,1001.95 1003.00,1003.00 1001.95,1004.75 1001.60,1007.20"/>
    </edge>
    <edge id=":C2_5" function="internal">
        <lane id=":C2_5_0" index="0" speed="13.89" length="14.40" shape="1007.20,1001.60 992.80,1001.60"/>
    </edge>
    <edge id=":C2_6" function="internal">
        <lane id=":C2_6_0" index="0" speed="8.00" length="4.07" shape="1007.20,1001.60 1003.35,1001.05 1003.20,1000.96"/>
    </edge>
    <edge id=":C2_7" function="internal">
        <lane id=":C2_7_0" index="0" speed="3.65" length="1.44" shape="1007.20,1001.60 1006.00,1000.80"/>
    </edge>
    <edge id=":C2_18" function="internal">
        <lane id=":C2_18_0" index="0" speed="8.00" length="10.13" shape="1003.20,1000.96 1000.60,999.40 998.95,996.65 998.40,992.80"/>
    </edge>
    <edge id=":C2_19" function="internal">
        <lane id=":C2_19_0" index="0" speed="3.65" length="3.23" shape="1006.00,1000.80 1005.60,1000.00 1006.00,999.20 1007.20,998.40"/>
    </edge>
    <edge id=":C2_8" function="internal">
        <lane id=":C2_8_0" index="0" speed="6.51" length="9.03" shape="1001.60,992.80 1001.95,995.25 1003.00,997.00 1004.75,998.05 1007.20,998.40"/>
    </edge>
    <edge id=":C2_9" function="internal">
        <lane id=":C2_9_0" index="0" speed="13.89" length="14.40" shape="1001.60,992.80 1001.60,1007.20"/>
    </edge>
    <edge id=":C2_10" function="internal">
        <lane id=":C2_10_0" index="0" speed="8.00" length="4.07" shape="1001.60,992.80 1001.05,996.65 1000.96,996.80"/>
    </edge>
    <edge id=":C2_11" function="internal">
        <lane id=":C2_11_0" index="0" speed="3.65" length="1.44" shape="1001.60,992.80 1000.80,994.00"/>
    </edge>
    <edge id=":C2_20" function="internal">
        <lane id=":C2_20_0" index="0" speed="8.00" length="10.13" shape="1000.96,996.80 999.40,999.40 996.65,1001.05 992.80,1001.60"/>
    </edge>
    <edge id=":C2_21" function="internal">
        <lane id=":C2_21_0" index="0" speed="3.65" length="3.23" shape="1000.80,994.00 1000.00,994.40 999.20,994.00 998.40,992.80"/>
    </edge>
    <edge id=":C2_12" function="internal">
        <lane id=":C2_12_0" index="0" speed="6.51" length="9.03" shape="992.80,998.40 995.25,998.05 997.00,997.00 998.05,995.25 998.40,992.80"/>
    </edge>
    <edge id=":C2_13" function="internal">
        <lane id=":C2_13_0" index="0" speed="13.89" length="14.40" shape="992.80,998.40 1007.20,998.40"/>
    </edge>
    <edge id=":C2_14" function="internal">
        <lane id=":C2_14_0" index="0" speed="8.00" length="4.07" shape="992.80,998.40 996.65,998.95 996.80,999.04"/>
    </edge>
    <edge id=":C2_15" function="internal">
        <lane id=":C2_15_0" index="0" speed="3.65" length="1.44" shape="992.80,998.40 994.00,999.20"/>
    </edge>
    <edge id=":C2_22" function="internal">
        <lane id=":C2_22_0" index="0" speed="8.00" length="10.13" shape="996.80,999.04 999.40,1000.60 1001.05,1003.35 1001.60,1007.20"/>
    </edge>
    <edge id=":C2_23" function="internal">
        <lane id=":C2_23_0" index="0" speed="3.65" length="3.23" shape="994.00,999.20 994.40,1000.00 994.00,1000.80 992.80,1001.60"/>
    </edge>
    <edge id=":C3_0" function="internal">
        <lane id=":C3_0_0" index="0" speed="13.89" length="0.10" shape="998.40,1500.00 998.40,1500.00"/>
    </edge>
    <edge id=":C3_1" function="internal">
        <lane id=":C3_1_0" index="0" speed="3.65" length="2.34" shape="998.40,1500.00 999.20,1498.80 1000.00,1498.40"/>
    </edge>
    <edge id=":C3_4" function="internal">
        <lane id=":C3_4_0" index="0" speed="3.65" length="2.34" shape="1000.00,1498.40 1000.80,1498.80 1001.60,1500.00"/>
    </edge>
    <edge id=":C3_2" function="internal">
        <lane id=":C3_2_0" index="0" speed="13.89" length="0.10" shape="1001.60,1500.00 1001.60,1500.00"/>
    </edge>
    <edge id=":C3_3" function="internal">
        <lane id=":C3_3_0" index="0" speed="3.65" length="2.34" shape="1001.60,1500.00 1000.80,1501.20 1000.00,1501.60"/>
    </edge>
    <edge id=":C3_5" function="internal">
        <lane id=":C3_5_0" index="0" speed="3.65" length="2.34" shape="1000.00,1501.60 999.20,1501.20 998.40,1500.00"/>
    </edge>
    <edge id=":C4_0" function="internal">
        <lane id=":C4_0_0" index="0" speed="3.65" length="4.67" shape="1001.60,2000.00 1000.80,2001.20 1000.00,2001.60 999.20,2001.20 998.40,2000.00"/>
    </edge>
    <edge id=":D2_0" function="internal">
        <lane id=":D2_0_0" index="0" speed="13.89" length="0.10" shape="1500.00,1001.60 1500.00,1001.60"/>
    </edge>
    <edge id=":D2_1" function="internal">
        <lane id=":D2_1_0" index="0" speed="3.65" length="2.34" shape="1500.00,1001.60 1498.80,1000.80 1498.40,1000.00"/>
    </edge>
    <edge id=":D2_4" function="internal">
        <lane id=":D2_4_0" index="0" speed="3.65" length="2.34" shape="1498.40,1000.00 1498.80,999.20 1500.00,998.40"/>
    </edge>
    <edge id=":D2_2" function="internal">
        <lane id=":D2_2_0" index="0" speed="13.89" length="0.10" shape="1500.00,998.40 1500.00,998.40"/>
    </edge>
    <edge id=":D2_3" function="internal">
        <lane id=":D2_3_0" index="0" speed="3.65" length="2.34" shape="1500.00,998.40 1501.20,999.20 1501.60,1000.00"/>
    </edge>
    <edge id=":D2_5" function="internal">
        <lane id=":D2_5_0" index="0" speed="3.65" length="2.34" shape="1501.60,1000.00 1501.20,1000.80 1500.00,1001.60"/>
    </edge>
    <edge id=":E2_0" function="internal">
        <lane id=":E2_0_0" index="0" speed="3.65" length="4.67" shape="2000.00,998.40 2001.20,999.20 2001.60,1000.00 2001.20,1000.80 2000.00,1001.60"/>
    </edge>

    <edge id="A2B2" from="A2" to="B2" priority="-1">
        <lane id="A2B2_0" index="0" speed="13.89" length="500.00" shape="0.00,998.40 500.00,998.40"/>
    </edge>
    <edge id="B2A2" from="B2" to="A2" priority="-1">
        <lane id="B2A2_0" index="0" speed="13.89" length="500.00" shape="500.00,1001.60 0.00,1001.60"/>
    </edge>
    <edge id="B2C2" from="B2" to="C2" priority="-1">
        <lane id="B2C2_0" index="0" speed="13.89" length="492.80" shape="500.00,998.40 992.80,998.40"/>
    </edge>
    <edge id="C0C1" from="C0" to="C1" priority="-1">
        <lane id="C0C1_0" index="0" speed="13.89" length="500.00" shape="1001.60,0.00 1001.60,500.00"/>
    </edge>
    <edge id="C1C0" from="C1" to="C0" priority="-1">
        <lane id="C1C0_0" index="0" speed="13.89" length="500.00" shape="998.40,500.00 998.40,0.00"/>
    </edge>
    <edge id="C1C2" from="C1" to="C2" priority="-1">
        <lane id="C1C2_0" index="0" speed="13.89" length="492.80" shape="1001.60,500.00 1001.60,992.80"/>
    </edge>
    <edge id="C2B2" from="C2" to="B2" priority="-1">
        <lane id="C2B2_0" index="0" speed="13.89" length="492.80" shape="992.80,1001.60 500.00,1001.60"/>
    </edge>
    <edge id="C2C1" from="C2" to="C1" priority="-1">
        <lane id="C2C1_0" index="0" speed="13.89" length="492.80" shape="998.40,992.80 998.40,500.00"/>
    </edge>
    <edge id="C2C3" from="C2" to="C3" priority="-1">
        <lane id="C2C3_0" index="0" speed="13.89" length="492.80" shape="1001.60,1007.20 1001.60,1500.00"/>
    </edge>
    <edge id="C2D2" from="C2" to="D2" priority="-1">
        <lane id="C2D2_0" index="0" speed="13.89" length="492.80" shape="1007.20,998.40 1500.00,998.40"/>
    </edge>
    <edge id="C3C2" from="C3" to="C2" priority="-1">
        <lane id="C3C2_0" index="0" speed="13.89" length="492.80" shape="998.40,1500.00 998.40,1007.20"/>
    </edge>
    <edge id="C3C4" from="C3" to="C4" priority="-1">
        <lane id="C3C4_0" index="0" speed="13.89" length="500.00" shape="1001.60,1500.00 1001.60,2000.00"/>
    </edge>
    <edge id="C4C3" from="C4" to="C3" priority="-1">
        <lane id="C4C3_0" index="0" speed="13.89" length="500.00" shape="998.40,2000.00 998.40,1500.00"/>
    </edge>
    <edge id="D2C2" from="D2" to="C2" priority="-1">
        <lane id="D2C2_0" index="0" speed="13.89" length="492.80" shape="1500.00,1001.60 1007.20,1001.60"/>
    </edge>
    <edge id="D2E2" from="D2" to="E2" priority="-1">
        <lane id="D2E2_0" index="0" speed="13.89" length="500.00" shape="1500.00,998.40 2000.00,998.40"/>
    </edge>
    <edge id="E2D2" from="E2" to="D2" priority="-1">
        <lane id="E2D2_0" index="0" speed="13.89" length="500.00" shape="2000.00,1001.60 1500.00,1001.60"/>
    </edge>

    <tlLogic id="B2" type="static" programID="0" offset="0">
        <phase duration="82" state="GgGg"/>
        <phase duration="3"  state="yyyy"/>
        <phase duration="5"  state="rrrr"/>
    </tlLogic>
    <tlLogic id="C1" type="static" programID="0" offset="60">
        <phase duration="82" state="GgGg"/>
        <phase duration="3"  state="yyyy"/>
        <phase duration="5"  state="rrrr"/>
    </tlLogic>
    <tlLogic id="C2" type="actuated" programID="0" offset="0">
        <phase duration="42" state="GGggrrrrGGggrrrr" minDur="5" maxDur="50"/>
        <phase duration="3"  state="yyyyrrrryyyyrrrr"/>
        <phase duration="42" state="rrrrGGggrrrrGGgg" minDur="5" maxDur="50"/>
        <phase duration="3"  state="rrrryyyyrrrryyyy"/>
    </tlLogic>
    <tlLogic id="C3" type="static" programID="0" offset="20">
        <phase duration="82" state="GgGg"/>
        <phase duration="3"  state="yyyy"/>
        <phase duration="5"  state="rrrr"/>
    </tlLogic>
    <tlLogic id="D2" type="static" programID="0" offset="40">
        <phase duration="82" state="GgGg"/>
        <phase duration="3"  state="yyyy"/>
        <phase duration="5"  state="rrrr"/>
    </tlLogic>

    <junction id="A2" type="priority" x="0.00" y="1000.00" incLanes="B2A2_0" intLanes=":A2_0_0" shape="0.00,1000.00 0.00,1003.20 0.00,1000.00">
        <request index="0" response="0" foes="0" cont="0"/>
    </junction>
    <junction id="B2" type="traffic_light" x="500.00" y="1000.00" incLanes="C2B2_0 A2B2_0" intLanes=":B2_0_0 :B2_4_0 :B2_2_0 :B2_5_0" shape="500.00,1003.20 500.00,996.80 500.00,1003.20">
        <request index="0" response="0000" foes="1000" cont="0"/>
        <request index="1" response="0100" foes="0100" cont="1"/>
        <request index="2" response="0000" foes="0010" cont="0"/>
        <request index="3" response="0001" foes="0001" cont="1"/>
    </junction>
    <junction id="C0" type="priority" x="1000.00" y="0.00" incLanes="C1C0_0" intLanes=":C0_0_0" shape="1000.00,0.00 996.80,0.00 1000.00,0.00">
        <request index="0" response="0" foes="0" cont="0"/>
    </junction>
    <junction id="C1" type="traffic_light" x="1000.00" y="500.00" incLanes="C2C1_0 C0C1_0" intLanes=":C1_0_0 :C1_4_0 :C1_2_0 :C1_5_0" shape="996.80,500.00 1003.20,500.00 996.80,500.00">
        <request index="0" response="0000" foes="1000" cont="0"/>
        <request index="1" response="0100" foes="0100" cont="1"/>
        <request index="2" response="0000" foes="0010" cont="0"/>
        <request index="3" response="0001" foes="0001" cont="1"/>
    </junction>
    <junction id="C2" type="traffic_light" x="1000.00" y="1000.00" incLanes="C3C2_0 D2C2_0 C1C2_0 B2C2_0" intLanes=":C2_0_0 :C2_1_0 :C2_16_0 :C2_17_0 :C2_4_0 :C2_5_0 :C2_18_0 :C2_19_0 :C2_8_0 :C2_9_0 :C2_20_0 :C2_21_0 :C2_12_0 :C2_13_0 :C2_22_0 :C2_23_0" shape="996.80,1007.20 1003.20,1007.20 1003.64,1004.98 1004.20,1004.20 1004.98,1003.64 1005.98,1003.31 1007.20,1003.20 1007.20,996.80 1004.98,996.36 1004.20,995.80 1003.64,995.02 1003.31,994.02 1003.20,992.80 996.80,992.80 996.36,995.02 995.80,995.80 995.02,996.36 994.02,996.69 992.80,996.80 992.80,1003.20 995.02,1003.64 995.80,1004.20 996.36,1004.98 996.69,1005.98">
        <request index="0"  response="0000000000000000" foes="1000010000100000" cont="0"/>
        <request index="1"  response="0100000001000000" foes="0111110001100000" cont="0"/>
        <request index="2"  response="0100001101000000" foes="0110011111100000" cont="1"/>
        <request index="3"  response="0100001000010000" foes="0100001000010000" cont="1"/>
        <request index="4"  response="0000001000000000" foes="0100001000001000" cont="0"/>
        <request index="5"  response="0000011000000111" foes="1100011000000111" cont="0"/>
        <request index="6"  response="0011011000000110" foes="0111111000000110" cont="1"/>
        <request index="7"  response="0010000100000100" foes="0010000100000100" cont="1"/>
        <request index="8"  response="0000000000000000" foes="0010000010000100" cont="0"/>
        <request index="9"  response="0100000001000000" foes="0110000001111100" cont="0"/>
        <request index="10" response="0100000001000111" foes="1110000001100111" cont="1"/>
        <request index="11" response="0001000001000010" foes="0001000001000010" cont="1"/>
        <request index="12" response="0000000000000010" foes="0000100001000010" cont="0"/>
        <request index="13" response="0000011100000110" foes="0000011111000110" cont="0"/>
        <request index="14" response="0000011001110110" foes="0000011001111110" cont="1"/>
        <request index="15" response="0000010000100001" foes="0000010000100001" cont="1"/>
    </junction>
    <junction id="C3" type="traffic_light" x="1000.00" y="1500.00" incLanes="C4C3_0 C2C3_0" intLanes=":C3_0_0 :C3_4_0 :C3_2_0 :C3_5_0" shape="996.80,1500.00 1003.20,1500.00 996.80,1500.00">
        <request index="0" response="0000" foes="1000" cont="0"/>
        <request index="1" response="0100" foes="0100" cont="1"/>
        <request index="2" response="0000" foes="0010" cont="0"/>
        <request index="3" response="0001" foes="0001" cont="1"/>
    </junction>
    <junction id="C4" type="priority" x="1000.00" y="2000.00" incLanes="C3C4_0" intLanes=":C4_0_0" shape="1000.00,2000.00 1003.20,2000.00 1000.00,2000.00">
        <request index="0" response="0" foes="0" cont="0"/>
    </junction>
    <junction id="D2" type="traffic_light" x="1500.00" y="1000.00" incLanes="E2D2_0 C2D2_0" intLanes=":D2_0_0 :D2_4_0 :D2_2_0 :D2_5_0" shape="1500.00,1003.20 1500.00,996.80 1500.00,1003.20">
        <request index="0" response="0000" foes="1000" cont="0"/>
        <request index="1" response="0100" foes="0100" cont="1"/>
        <request index="2" response="0000" foes="0010" cont="0"/>
        <request index="3" response="0001" foes="0001" cont="1"/>
    </junction>
    <junction id="E2" type="priority" x="2000.00" y="1000.00" incLanes="D2E2_0" intLanes=":E2_0_0" shape="2000.00,1000.00 2000.00,996.80 2000.00,1000.00">
        <request index="0" response="0" foes="0" cont="0"/>
    </junction>

    <junction id=":B2_4_0" type="internal" x="498.40" y="1000.00" incLanes=":B2_1_0 A2B2_0" intLanes=":B2_2_0"/>
    <junction id=":B2_5_0" type="internal" x="501.60" y="1000.00" incLanes=":B2_3_0 C2B2_0" intLanes=":B2_0_0"/>
    <junction id=":C1_4_0" type="internal" x="1000.00" y="498.40" incLanes=":C1_1_0 C0C1_0" intLanes=":C1_2_0"/>
    <junction id=":C1_5_0" type="internal" x="1000.00" y="501.60" incLanes=":C1_3_0 C2C1_0" intLanes=":C1_0_0"/>
    <junction id=":C2_16_0" type="internal" x="999.04" y="1003.20" incLanes=":C2_2_0 C1C2_0" intLanes=":C2_5_0 :C2_6_0 :C2_7_0 :C2_8_0 :C2_9_0 :C2_13_0 :C2_14_0"/>
    <junction id=":C2_17_0" type="internal" x="999.20" y="1006.00" incLanes=":C2_3_0 B2C2_0 C1C2_0 D2C2_0" intLanes=":C2_4_0 :C2_9_0 :C2_14_0"/>
    <junction id=":C2_18_0" type="internal" x="1003.20" y="1000.96" incLanes=":C2_6_0 B2C2_0" intLanes=":C2_1_0 :C2_2_0 :C2_9_0 :C2_10_0 :C2_11_0 :C2_12_0 :C2_13_0"/>
    <junction id=":C2_19_0" type="internal" x="1006.00" y="1000.80" incLanes=":C2_7_0 B2C2_0 C1C2_0 C3C2_0" intLanes=":C2_2_0 :C2_8_0 :C2_13_0"/>
    <junction id=":C2_20_0" type="internal" x="1000.96" y="996.80" incLanes=":C2_10_0 C3C2_0" intLanes=":C2_0_0 :C2_1_0 :C2_5_0 :C2_6_0 :C2_13_0 :C2_14_0 :C2_15_0"/>
    <junction id=":C2_21_0" type="internal" x="1000.80" y="994.00" incLanes=":C2_11_0 B2C2_0 C3C2_0 D2C2_0" intLanes=":C2_1_0 :C2_6_0 :C2_12_0"/>
    <junction id=":C2_22_0" type="internal" x="996.80" y="999.04" incLanes=":C2_14_0 D2C2_0" intLanes=":C2_1_0 :C2_2_0 :C2_3_0 :C2_4_0 :C2_5_0 :C2_9_0 :C2_10_0"/>
    <junction id=":C2_23_0" type="internal" x="994.00" y="999.20" incLanes=":C2_15_0 C1C2_0 C3C2_0 D2C2_0" intLanes=":C2_0_0 :C2_5_0 :C2_10_0"/>
    <junction id=":C3_4_0" type="internal" x="1000.00" y="1498.40" incLanes=":C3_1_0 C2C3_0" intLanes=":C3_2_0"/>
    <junction id=":C3_5_0" type="internal" x="1000.00" y="1501.60" incLanes=":C3_3_0 C4C3_0" intLanes=":C3_0_0"/>
    <junction id=":D2_4_0" type="internal" x="1498.40" y="1000.00" incLanes=":D2_1_0 C2D2_0" intLanes=":D2_2_0"/>
    <junction id=":D2_5_0" type="internal" x="1501.60" y="1000.00" incLanes=":D2_3_0 E2D2_0" intLanes=":D2_0_0"/>

    <connection from="A2B2" to="B2C2" fromLane="0" toLane="0" keepClear="0" via=":B2_2_0" tl="B2" linkIndex="2" dir="s" state="O"/>
    <connection from="A2B2" to="B2A2" fromLane="0" toLane="0" via=":B2_3_0" tl="B2" linkIndex="3" dir="t" state="o"/>
    <connection from="B2A2" to="A2B2" fromLane="0" toLane="0" via=":A2_0_0" dir="t" state="M"/>
    <connection from="B2C2" to="C2C1" fromLane="0" toLane="0" via=":C2_12_0" tl="C2" linkIndex="12" dir="r" state="o"/>
    <connection from="B2C2" to="C2D2" fromLane="0" toLane="0" via=":C2_13_0" tl="C2" linkIndex="13" dir="s" state="o"/>
    <connection from="B2C2" to="C2C3" fromLane="0" toLane="0" via=":C2_14_0" tl="C2" linkIndex="14" dir="l" state="o"/>
    <connection from="B2C2" to="C2B2" fromLane="0" toLane="0" via=":C2_15_0" tl="C2" linkIndex="15" dir="t" state="o"/>
    <connection from="C0C1" to="C1C2" fromLane="0" toLane="0" keepClear="0" via=":C1_2_0" tl="C1" linkIndex="2" dir="s" state="O"/>
    <connection from="C0C1" to="C1C0" fromLane="0" toLane="0" via=":C1_3_0" tl="C1" linkIndex="3" dir="t" state="o"/>
    <connection from="C1C0" to="C0C1" fromLane="0" toLane="0" via=":C0_0_0" dir="t" state="M"/>
    <connection from="C1C2" to="C2D2" fromLane="0" toLane="0" via=":C2_8_0" tl="C2" linkIndex="8" dir="r" state="O"/>
    <connection from="C1C2" to="C2C3" fromLane="0" toLane="0" via=":C2_9_0" tl="C2" linkIndex="9" dir="s" state="O"/>
    <connection from="C1C2" to="C2B2" fromLane="0" toLane="0" via=":C2_10_0" tl="C2" linkIndex="10" dir="l" state="o"/>
    <connection from="C1C2" to="C2C1" fromLane="0" toLane="0" via=":C2_11_0" tl="C2" linkIndex="11" dir="t" state="o"/>
    <connection from="C2B2" to="B2A2" fromLane="0" toLane="0" keepClear="0" via=":B2_0_0" tl="B2" linkIndex="0" dir="s" state="O"/>
    <connection from="C2B2" to="B2C2" fromLane="0" toLane="0" via=":B2_1_0" tl="B2" linkIndex="1" dir="t" state="o"/>
    <connection from="C2C1" to="C1C0" fromLane="0" toLane="0" keepClear="0" via=":C1_0_0" tl="C1" linkIndex="0" dir="s" state="O"/>
    <connection from="C2C1" to="C1C2" fromLane="0" toLane="0" via=":C1_1_0" tl="C1" linkIndex="1" dir="t" state="o"/>
    <connection from="C2C3" to="C3C4" fromLane="0" toLane="0" keepClear="0" via=":C3_2_0" tl="C3" linkIndex="2" dir="s" state="O"/>
    <connection from="C2C3" to="C3C2" fromLane="0" toLane="0" via=":C3_3_0" tl="C3" linkIndex="3" dir="t" state="o"/>
    <connection from="C2D2" to="D2E2" fromLane="0" toLane="0" keepClear="0" via=":D2_2_0" tl="D2" linkIndex="2" dir="s" state="O"/>
    <connection from="C2D2" to="D2C2" fromLane="0" toLane="0" via=":D2_3_0" tl="D2" linkIndex="3" dir="t" state="o"/>
    <connection from="C3C2" to="C2B2" fromLane="0" toLane="0" via=":C2_0_0" tl="C2" linkIndex="0" dir="r" state="O"/>
    <connection from="C3C2" to="C2C1" fromLane="0" toLane="0" via=":C2_1_0" tl="C2" linkIndex="1" dir="s" state="O"/>
    <connection from="C3C2" to="C2D2" fromLane="0" toLane="0" via=":C2_2_0" tl="C2" linkIndex="2" dir="l" state="o"/>
    <connection from="C3C2" to="C2C3" fromLane="0" toLane="0" via=":C2_3_0" tl="C2" linkIndex="3" dir="t" state="o"/>
    <connection from="C3C4" to="C4C3" fromLane="0" toLane="0" via=":C4_0_0" dir="t" state="M"/>
    <connection from="C4C3" to="C3C2" fromLane="0" toLane="0" keepClear="0" via=":C3_0_0" tl="C3" linkIndex="0" dir="s" state="O"/>
    <connection from="C4C3" to="C3C4" fromLane="0" toLane="0" via=":C3_1_0" tl="C3" linkIndex="1" dir="t" state="o"/>
    <connection from="D2C2" to="C2C3" fromLane="0" toLane="0" via=":C2_4_0" tl="C2" linkIndex="4" dir="r" state="o"/>
    <connection from="D2C2" to="C2B2" fromLane="0" toLane="0" via=":C2_5_0" tl="C2" linkIndex="5" dir="s" state="o"/>
    <connection from="D2C2" to="C2C1" fromLane="0" toLane="0" via=":C2_6_0" tl="C2" linkIndex="6" dir="l" state="o"/>
    <connection from="D2C2" to="C2D2" fromLane="0" toLane="0" via=":C2_7_0" tl="C2" linkIndex="7" dir="t" state="o"/>
    <connection from="D2E2" to="E2D2" fromLane="0" toLane="0" via=":E2_0_0" dir="t" state="M"/>
    <connection from="E2D2" to="D2C2" fromLane="0" toLane="0" keepClear="0" via=":D2_0_0" tl="D2" linkIndex="0" dir="s" state="O"/>
    <connection from="E2D2" to="D2E2" fromLane="0" toLane="0" via=":D2_1_0" tl="D2" linkIndex="1" dir="t" state="o"/>

    <connection from=":A2_0" to="A2B2" fromLane="0" toLane="0" dir="t" state="M"/>
    <connection from=":B2_0" to="B2A2" fromLane="0" toLane="0" dir="s" state="M"/>
    <connection from=":B2_1" to="B2C2" fromLane="0" toLane="0" via=":B2_4_0" dir="t" state="m"/>
    <connection from=":B2_4" to="B2C2" fromLane="0" toLane="0" dir="t" state="M"/>
    <connection from=":B2_2" to="B2C2" fromLane="0" toLane="0" dir="s" state="M"/>
    <connection from=":B2_3" to="B2A2" fromLane="0" toLane="0" via=":B2_5_0" dir="t" state="m"/>
    <connection from=":B2_5" to="B2A2" fromLane="0" toLane="0" dir="t" state="M"/>
    <connection from=":C0_0" to="C0C1" fromLane="0" toLane="0" dir="t" state="M"/>
    <connection from=":C1_0" to="C1C0" fromLane="0" toLane="0" dir="s" state="M"/>
    <connection from=":C1_1" to="C1C2" fromLane="0" toLane="0" via=":C1_4_0" dir="t" state="m"/>
    <connection from=":C1_4" to="C1C2" fromLane="0" toLane="0" dir="t" state="M"/>
    <connection from=":C1_2" to="C1C2" fromLane="0" toLane="0" dir="s" state="M"/>
    <connection from=":C1_3" to="C1C0" fromLane="0" toLane="0" via=":C1_5_0" dir="t" state="m"/>
    <connection from=":C1_5" to="C1C0" fromLane="0" toLane="0" dir="t" state="M"/>
    <connection from=":C2_0" to="C2B2" fromLane="0" toLane="0" dir="r" state="M"/>
    <connection from=":C2_1" to="C2C1" fromLane="0" toLane="0" dir="s" state="M"/>
    <connection from=":C2_2" to="C2D2" fromLane="0" toLane="0" via=":C2_16_0" dir="l" state="m"/>
    <connection from=":C2_16" to="C2D2" fromLane="0" toLane="0" dir="l" state="M"/>
    <connection from=":C2_3" to="C2C3" fromLane="0" toLane="0" via=":C2_17_0" dir="t" state="m"/>
    <connection from=":C2_17" to="C2C3" fromLane="0" toLane="0" dir="t" state="M"/>
    <connection from=":C2_4" to="C2C3" fromLane="0" toLane="0" dir="r" state="M"/>
    <connection from=":C2_5" to="C2B2" fromLane="0" toLane="0" dir="s" state="M"/>
    <connection from=":C2_6" to="C2C1" fromLane="0" toLane="0" via=":C2_18_0" dir="l" state="m"/>
    <connection from=":C2_18" to="C2C1" fromLane="0" toLane="0" dir="l" state="M"/>
    <connection from=":C2_7" to="C2D2" fromLane="0" toLane="0" via=":C2_19_0" dir="t" state="m"/>
    <connection from=":C2_19" to="C2D2" fromLane="0" toLane="0" dir="t" state="M"/>
    <connection from=":C2_8" to="C2D2" fromLane="0" toLane="0" dir="r" state="M"/>
    <connection from=":C2_9" to="C2C3" fromLane="0" toLane="0" dir="s" state="M"/>
    <connection from=":C2_10" to="C2B2" fromLane="0" toLane="0" via=":C2_20_0" dir="l" state="m"/>
    <connection from=":C2_20" to="C2B2" fromLane="0" toLane="0" dir="l" state="M"/>
    <connection from=":C2_11" to="C2C1" fromLane="0" toLane="0" via=":C2_21_0" dir="t" state="m"/>
    <connection from=":C2_21" to="C2C1" fromLane="0" toLane="0" dir="t" state="M"/>
    <connection from=":C2_12" to="C2C1" fromLane="0" toLane="0" dir="r" state="M"/>
    <connection from=":C2_13" to="C2D2" fromLane="0" toLane="0" dir="s" state="M"/>
    <connection from=":C2_14" to="C2C3" fromLane="0" toLane="0" via=":C2_22_0" dir="l" state="m"/>
    <connection from=":C2_22" to="C2C3" fromLane="0" toLane="0" dir="l" state="M"/>
    <connection from=":C2_15" to="C2B2" fromLane="0" toLane="0" via=":C2_23_0" dir="t" state="m"/>
    <connection from=":C2_23" to="C2B2" fromLane="0" toLane="0" dir="t" state="M"/>
    <connection from=":C3_0" to="C3C2" fromLane="0" toLane="0" dir="s" state="M"/>
    <connection from=":C3_1" to="C3C4" fromLane="0" toLane="0" via=":C3_4_0" dir="t" state="m"/>
    <connection from=":C3_4" to="C3C4" fromLane="0" toLane="0" dir="t" state="M"/>
    <connection from=":C3_2" to="C3C4" fromLane="0" toLane="0" dir="s" state="M"/>
    <connection from=":C3_3" to="C3C2" fromLane="0" toLane="0" via=":C3_5_0" dir="t" state="m"/>
    <connection from=":C3_5" to="C3C2" fromLane="0" toLane="0" dir="t" state="M"/>
    <connection from=":C4_0" to="C4C3" fromLane="0" toLane="0" dir="t" state="M"/>
    <connection from=":D2_0" to="D2C2" fromLane="0" toLane="0" dir="s" state="M"/>
    <connection from=":D2_1" to="D2E2" fromLane="0" toLane="0" via=":D2_4_0" dir="t" state="m"/>
    <connection from=":D2_4" to="D2E2" fromLane="0" toLane="0" dir="t" state="M"/>