<?xml version="1.0" encoding="UTF-8"?>

<!-- generated on 2024-07-16 18:36:14 by Eclipse SUMO netedit Version 1.17.0
-->

<routes xmlns:xsi="http://www.w3.org/2001/XMLSchema-instance" xsi:noNamespaceSchemaLocation="http://sumo.dlr.de/xsd/routes_file.xsd">
    <!-- Routes -->
    <route id="r_0" edges="A5B5 B5C5 C5D5 D5E5 E5F5"/>
    <route id="r_1" edges="G5F5 F5E5 E5D5 D5C5 C5B5"/>
    <route id="r_10" edges="C4C3 C3C2 C2C1"/>
    <route id="r_11" edges="C0C1 C1C2 C2C3"/>
    <route id="r_12" edges="D4D3 D3D2 D2D1"/>
    <route id="r_13" edges="D0D1 D1D2 D2D3"/>
    <route id="r_14" edges="E4E3 E3E2 E2E1"/>
    <route id="r_15" edges="E0E1 E1E2 E2E3"/>
    <route id="r_2" edges="C7C6 C6C5 C5C4"/>
    <route id="r_3" edges="C3C4 C4C5 C5C6"/>
    <route id="r_4" edges="D7D6 D6D5 D5D4"/>
    <route id="r_5" edges="D3D4 D4D5 D5D6"/>
    <route id="r_6" edges="E7E6 E6E5 E5E4"/>
    <route id="r_7" edges="E3E4 E4E5 E5E6"/>
    <route id="r_8" edges="A2B2 B2C2 C2D2 D2E2 E2F2"/>
    <route id="r_9" edges="G2F2 F2E2 E2D2 D2C2 C2B2"/>
	
   <flow id="f_0_0" begin="0.00" end="200.00" probability="0.5" route="r_0"/>
   <flow id="f_0_1" begin="0.00" end="200.00" probability="0.5" route="r_1"/>
   <flow id="f_0_2" begin="0.00" end="200.00" probability="0.2" route="r_2"/>
   <flow id="f_0_3" begin="0.00" end="200.00" probability="0.2" route="r_3"/>
   <flow id="f_0_4" begin="0.00" end="200.00" probability="0.2" route="r_4"/>
   <flow id="f_0_5" begin="0.00" end="200.00" probability="0.2" route="r_5"/>
   <flow id="f_0_6" begin="0.00" end="200.00" probability="0.2" route="r_6"/>
   <flow id="f_0_7" begin="0.00" end="200.00" probability="0.2" route="r_7"/>
   <flow id="f_0_8" begin="0.00" end="200.00" probability="0.2" route="r_8"/>
   <flow id="f_0_9" begin="0.00" end="200.00" probability="0.2" route="r_9"/>
   <flow id="f_0_10" begin="0.00" end="200.00" probability="0.4" route="r_10"/>
   <flow id="f_0_11" begin="0.00" end="200.00" probability="0.4" route="r_11"/>
   <flow id="f_0_12" begin="0.00" end="200.00" probability="0.4" route="r_12"/>
   <flow id="f_0_13" begin="0.00" end="200.00" probability="0.4" route="r_13"/>
   <flow id="f_0_14" begin="0.00" end="200.00" probability="0.4" route="r_14"/>
   <flow id="f_0_15" begin="0.00" end="200.00" probability="0.4" route="r_15"/>
   <flow id="f_1_0" begin="245.00" end="450.00" probability="0.45" route="r_0"/>
   <flow id="f_1_8" begin="250.00" end="280.00" probability="0.45194775635716367" route="r_8"/>
   <flow id="f_1_9" begin="250.00" end="280.00" probability="0.01474302652020143" route="r_9"/>
   <flow id="f_1_10" begin="250.00" end="280.00" probability="0.39214390062484733" route="r_10"/>
   <flow id="f_1_11" begin="250.00" end="280.00" probability="0.28021730301821807" route="r_11"/>
   <flow id="f_1_12" begin="250.00" end="280.00" probability="0.059012871450313364" route="r_12"/>
   <flow id="f_1_13" begin="250.00" end="280.00" probability="0.2790145100948522" route="r_13"/>
   <flow id="f_1_14" begin="250.00" end="280.00" probability="0.12046540358799494" route="r_14"/>
   <flow id="f_1_15" begin="250.00" end="280.00" probability="0.2601394315261263" route="r_15"/>
   <flow id="f_1_2" begin="250.00" end="340.00" probability="0.16385057982858758" route="r_2"/>
   <flow id="f_1_3" begin="250.00" end="340.00" probability="0.019045331936425658" route="r_3"/>
   <flow id="f_1_4" begin="250.00" end="340.00" probability="0.11131082778421744" route="r_4"/>
   <flow id="f_1_5" begin="250.00" end="340.00" probability="0.07654377675285076" route="r_5"/>
   <flow id="f_1_6" begin="250.00" end="340.00" probability="0.19313692936185373" route="r_6"/>
   <flow id="f_1_7" begin="250.00" end="340.00" probability="0.11661619229937548" route="r_7"/>
   <flow id="f_2_8" begin="283.00" end="313.00" probability="0.1574932796955059" route="r_8"/>
   <flow id="f_2_9" begin="283.00" end="313.00" probability="0.4233542839626683" route="r_9"/>
   <flow id="f_2_10" begin="283.00" end="313.00" probability="0.41008299657225245" route="r_10"/>
   <flow id="f_2_11" begin="283.00" end="313.00" probability="0.08357334992289292" route="r_11"/>
   <flow id="f_2_12" begin="283.00" end="313.00" probability="0.32440512072363054" route="r_12"/>
   <flow id="f_2_13" begin="283.00" end="313.00" probability="0.4695780975252092" route="r_13"/>
   <flow id="f_2_14" begin="283.00" end="313.00" probability="0.2753513081992706" route="r_14"/>
   <flow id="f_2_15" begin="283.00" end="313.00" probability="0.21074382405824824" route="r_15"/>
   <flow id="f_3_8" begin="316.00" end="346.00" probability="0.44500535829505083" route="r_8"/>
   <flow id="f_3_9" begin="316.00" end="346.00" probability="0.44490471644849683" route="r_9"/>
   <flow id="f_3_10" begin="316.00" end="346.00" probability="0.32335392997455087" route="r_10"/>
   <flow id="f_3_11" begin="316.00" end="346.00" probability="0.2867186094300264" route="r_11"/>
   <flow id="f_3_12" begin="316.00" end="346.00" probability="0.2202319103415267" route="r_12"/>
   <flow id="f_3_13" begin="316.00" end="346.00" probability="0.039482539288639096" route="r_13"/>
   <flow id="f_3_14" begin="316.00" end="346.00" probability="0.37947759623654886" route="r_14"/>
   <flow id="f_3_15" begin="316.00" end="346.00" probability="0.014909735840034355" route="r_15"/>
   <flow id="f_4_8" begin="349.00" end="379.00" probability="0.36068586626643806" route="r_8"/>
   <flow id="f_4_9" begin="349.00" end="379.00" probability="0.27200413696506237" route="r_9"/>
   <flow id="f_4_10" begin="349.00" end="379.00" probability="0.21540645776271974" route="r_10"/>
   <flow id="f_4_11" begin="349.00" end="379.00" probability="0.15159954560763375" route="r_11"/>
   <flow id="f_4_12" begin="349.00" end="379.00" probability="0.3655865946725288" route="r_12"/>
   <flow id="f_4_13" begin="349.00" end="379.00" probability="0.008282610612685759" route="r_13"/>
   <flow id="f_4_14" begin="349.00" end="379.00" probability="0.2897429521943286" route="r_14"/>
   <flow id="f_4_15" begin="349.00" end="379.00" probability="0.33363650947293755" route="r_15"/>
   <flow id="f_1_1" begin="350.00" end="550.00" probability="0.45" route="r_1"/>
   <flow id="f_2_2" begin="350.00" end="440.00" probability="0.3500515076640913" route="r_2"/>
   <flow id="f_2_3" begin="350.00" end="440.00" probability="0.27265785161639966" route="r_3"/>
   <flow id="f_2_4" begin="350.00" end="440.00" probability="0.042644467671498404" route="r_4"/>
   <flow id="f_2_5" begin="350.00" end="440.00" probability="0.2860912063334687" route="r_5"/>
   <flow id="f_2_6" begin="350.00" end="440.00" probability="0.3605389048986261" route="r_6"/>
   <flow id="f_2_7" begin="350.00" end="440.00" probability="0.3626318114497744" route="r_7"/>
   <flow id="f_5_8" begin="382.00" end="412.00" probability="0.20080643321184535" route="r_8"/>
   <flow id="f_5_9" begin="382.00" end="412.00" probability="0.30218057618019806" route="r_9"/>
   <flow id="f_5_10" begin="382.00" end="412.00" probability="0.3481181406947437" route="r_10"/>
   <flow id="f_5_11" begin="382.00" end="412.00" probability="0.17862216261142524" route="r_11"/>
   <flow id="f_5_12" begin="382.00" end="412.00" probability="0.06962620907673095" route="r_12"/>
   <flow id="f_5_13" begin="382.00" end="412.00" probability="0.3484140354859734" route="r_13"/>
   <flow id="f_5_14" begin="382.00" end="412.00" probability="0.03185462423273577" route="r_14"/>
   <flow id="f_5_15" begin="382.00" end="412.00" probability="0.4437264522806528" route="r_15"/>
   <flow id="f_6_8" begin="415.00" end="445.00" probability="0.3247633757375683" route="r_8"/>
   <flow id="f_6_9" begin="415.00" end="445.00" probability="0.3894881550923578" route="r_9"/>
   <flow id="f_6_10" begin="415.00" end="445.00" probability="0.22690525331564476" route="r_10"/>
   <flow id="f_6_11" begin="415.00" end="445.00" probability="0.09897195719849639" route="r_11"/>
   <flow id="f_6_12" begin="415.00" end="445.00" probability="0.3772972485564434" route="r_12"/>
   <flow id="f_6_13" begin="415.00" end="445.00" probability="0.006285118264434314" route="r_13"/>
   <flow id="f_6_14" begin="415.00" end="445.00" probability="0.22388554482720155" route="r_14"/>
   <flow id="f_6_15" begin="415.00" end="445.00" probability="0.13519024724173434" route="r_15"/>
   <flow id="f_7_8" begin="448.00" end="478.00" probability="0.31978752476050043" route="r_8"/>
   <flow id="f_7_9" begin="448.00" end="478.00" probability="0.45188019044023586" route="r_9"/>
   <flow id="f_7_10" begin="448.00" end="478.00" probability="0.24449217259090184" route="r_10"/>
   <flow id="f_7_11" begin="448.00" end="478.00" probability="0.22064908956988236" route="r_11"/>
   <flow id="f_7_12" begin="448.00" end="478.00" probability="0.12145707914645848" route="r_12"/>
   <flow id="f_7_13" begin="448.00" end="478.00" probability="0.0516245959507233" route="r_13"/>
   <flow id="f_7_14" begin="448.00" end="478.00" probability="0.3695138520229984" route="r_14"/>
   <flow id="f_7_15" begin="448.00" end="478.00" probability="0.14417700734318453" route="r_15"/>
   <flow id="f_3_2" begin="450.00" end="540.00" probability="0.3118427869543713" route="r_2"/>
   <flow id="f_3_3" begin="450.00" end="540.00" probability="0.06659612341719237" route="r_3"/>
   <flow id="f_3_4" begin="450.00" end="540.00" probability="0.2268350467898124" route="r_4"/>
   <flow id="f_3_5" begin="450.00" end="540.00" probability="0.05132790435334167" route="r_5"/>
   <flow id="f_3_6" begin="450.00" end="540.00" probability="0.06087947122994705" route="r_6"/>
   <flow id="f_3_7" begin="450.00" end="540.00" probability="0.24616614454863128" route="r_7"/>
   <flow id="f_8_8" begin="481.00" end="511.00" probability="0.40862161832441685" route="r_8"/>
   <flow id="f_8_9" begin="481.00" end="511.00" probability="0.4701967105710385" route="r_9"/>
   <flow id="f_8_10" begin="481.00" end="511.00" probability="0.19295406133050902" route="r_10"/>
   <flow id="f_8_11" begin="481.00" end="511.00" probability="0.01841018700307187" route="r_11"/>
   <flow id="f_8_12" begin="481.00" end="511.00" probability="0.18688835023799746" route="r_12"/>
   <flow id="f_8_13" begin="481.00" end="511.00" probability="0.15732566788199429" route="r_13"/>
   <flow id="f_8_14" begin="481.00" end="511.00" probability="0.31699127979308583" route="r_14"/>
   <flow id="f_8_15" begin="481.00" end="511.00" probability="0.2841590422237364" route="r_15"/>
   <flow id="f_9_8" begin="514.00" end="544.00" probability="0.2304557113270862" route="r_8"/>
   <flow id="f_9_9" begin="514.00" end="544.00" probability="0.296773549086155" route="r_9"/>
   <flow id="f_9_10" begin="514.00" end="544.00" probability="0.18862296484987712" route="r_10"/>
   <flow id="f_9_11" begin="514.00" end="544.00" probability="0.42045939015299916" route="r_11"/>
   <flow id="f_9_12" begin="514.00" end="544.00" probability="0.11885468332522255" route="r_12"/>
   <flow id="f_9_13" begin="514.00" end="544.00" probability="0.00987252240157041" route="r_13"/>
   <flow id="f_9_14" begin="514.00" end="544.00" probability="0.09757021490338114" route="r_14"/>
   <flow id="f_9_15" begin="514.00" end="544.00" probability="0.3770562164208999" route="r_15"/>
   <flow id="f_10_8" begin="547.00" end="577.00" probability="0.29653629068671056" route="r_8"/>
   <flow id="f_10_9" begin="547.00" end="577.00" probability="0.3690636950792912" route="r_9"/>
   <flow id="f_10_10" begin="547.00" end="577.00" probability="0.37730557495178874" route="r_10"/>
   <flow id="f_10_11" begin="547.00" end="577.00" probability="0.4262066910657565" route="r_11"/>
   <flow id="f_10_12" begin="547.00" end="577.00" probability="0.3553080247750121" route="r_12"/>
   <flow id="f_10_13" begin="547.00" end="577.00" probability="0.46536135141975266" route="r_13"/>
   <flow id="f_10_14" begin="547.00" end="577.00" probability="0.29103189327194195" route="r_14"/>
   <flow id="f_10_15" begin="547.00" end="577.00" probability="0.10148817962654216" route="r_15"/>
   <flow id="f_4_2" begin="550.00" end="640.00" probability="0.09358014375729466" route="r_2"/>
   <flow id="f_4_3" begin="550.00" end="640.00" probability="0.02672002571844989" route="r_3"/>
   <flow id="f_4_4" begin="550.00" end="640.00" probability="0.250275775289709" route="r_4"/>
   <flow id="f_4_5" begin="550.00" end="640.00" probability="0.22270208840088426" route="r_5"/>
   <flow id="f_4_6" begin="550.00" end="640.00" probability="0.30649147126841947" route="r_6"/>
   <flow id="f_4_7" begin="550.00" end="640.00" probability="0.026628086751332325" route="r_7"/>
   <flow id="f_11_8" begin="580.00" end="610.00" probability="0.25596384511083015" route="r_8"/>
   <flow id="f_11_9" begin="580.00" end="610.00" probability="0.4775265028951641" route="r_9"/>
   <flow id="f_11_10" begin="580.00" end="610.00" probability="0.000630960356807958" route="r_10"/>
   <flow id="f_11_11" begin="580.00" end="610.00" probability="0.2344946643401867" route="r_11"/>
   <flow id="f_11_12" begin="580.00" end="610.00" probability="0.1878688021396036" route="r_12"/>
   <flow id="f_11_13" begin="580.00" end="610.00" probability="0.041927619302196184" route="r_13"/>
   <flow id="f_11_14" begin="580.00" end="610.00" probability="0.20411671590935118" route="r_14"/>
   <flow id="f_11_15" begin="580.00" end="610.00" probability="0.3074825094687088" route="r_15"/>
   <flow id="f_2_0" begin="600.00" end="750.00" probability="0.45" route="r_0"/>
   <flow id="f_12_8" begin="613.00" end="643.00" probability="0.25333132486636734" route="r_8"/>
   <flow id="f_12_9" begin="613.00" end="643.00" probability="0.07893093824918218" route="r_9"/>
   <flow id="f_12_10" begin="613.00" end="643.00" probability="0.34603266780590025" route="r_10"/>
   <flow id="f_12_11" begin="613.00" end="643.00" probability="0.32219828656327715" route="r_11"/>
   <flow id="f_12_12" begin="613.00" end="643.00" probability="0.23825362854095095" route="r_12"/>
   <flow id="f_12_13" begin="613.00" end="643.00" probability="0.29751760761256923" route="r_13"/>
   <flow id="f_12_14" begin="613.00" end="643.00" probability="0.3962549629345548" route="r_14"/>
   <flow id="f_12_15" begin="613.00" end="643.00" probability="0.06102068010226763" route="r_15"/>
   <flow id="f_13_8" begin="646.00" end="676.00" probability="0.06134761423399315" route="r_8"/>
   <flow id="f_13_9" begin="646.00" end="676.00" probability="0.22958706490112674" route="r_9"/>
   <flow id="f_13_10" begin="646.00" end="676.00" probability="0.05527141772673139" route="r_10"/>
   <flow id="f_13_11" begin="646.00" end="676.00" probability="0.2384514200869476" route="r_11"/>
   <flow id="f_13_12" begin="646.00" end="676.00" probability="0.21169203948905724" route="r_12"/>
   <flow id="f_13_13" begin="646.00" end="676.00" probability="0.42027661249088083" route="r_13"/>
   <flow id="f_13_14" begin="646.00" end="676.00" probability="0.4270005368960295" route="r_14"/>
   <flow id="f_13_15" begin="646.00" end="676.00" probability="0.4346658121662112" route="r_15"/>
   <flow id="f_2_1" begin="650.00" end="750.00" probability="0.45" route="r_1"/>
   <flow id="f_5_2" begin="650.00" end="740.00" probability="0.327132654543885" route="r_2"/>
   <flow id="f_5_3" begin="650.00" end="740.00" probability="0.2592466362420916" route="r_3"/>
   <flow id="f_5_4" begin="650.00" end="740.00" probability="0.2797902436303745" route="r_4"/>
   <flow id="f_5_5" begin="650.00" end="740.00" probability="0.2820203565989563" route="r_5"/>
   <flow id="f_5_6" begin="650.00" end="740.00" probability="0.22664238359666425" route="r_6"/>
   <flow id="f_5_7" begin="650.00" end="740.00" probability="0.15132726817953795" route="r_7"/>
   <flow id="f_14_8" begin="679.00" end="709.00" probability="0.4671761785971542" route="r_8"/>
   <flow id="f_14_9" begin="679.00" end="709.00" probability="0.0863903225932057" route="r_9"/>
   <flow id="f_14_10" begin="679.00" end="709.00" probability="0.25543848546563813" route="r_10"/>
   <flow id="f_14_11" begin="679.00" end="709.00" probability="0.43361194560423294" route="r_11"/>
   <flow id="f_14_12" begin="679.00" end="709.00" probability="0.13916425609632632" route="r_12"/>
   <flow id="f_14_13" begin="679.00" end="709.00" probability="0.26870535885827257" route="r_13"/>
   <flow id="f_14_14" begin="679.00" end="709.00" probability="0.3220316560887188" route="r_14"/>
   <flow id="f_14_15" begin="679.00" end="709.00" probability="0.028231400954762287" route="r_15"/>
   <flow id="f_15_8" begin="712.00" end="742.00" probability="0.3554174608307864" route="r_8"/>
   <flow id="f_15_9" begin="712.00" end="742.00" probability="0.06087476154006649" route="r_9"/>
   <flow id="f_15_10" begin="712.00" end="742.00" probability="0.013537084459554538" route="r_10"/>
   <flow id="f_15_11" begin="712.00" end="742.00" probability="0.16301000495917597" route="r_11"/>
   <flow id="f_15_12" begin="712.00" end="742.00" probability="0.04058687834598579" route="r_12"/>
   <flow id="f_15_13" begin="712.00" end="742.00" probability="0.1332649480483654" route="r_13"/>
   <flow id="f_15_14" begin="712.00" end="742.00" probability="0.13205636849192876" route="r_14"/>
   <flow id="f_15_15" begin="712.00" end="742.00" probability="0.4270552945111222" route="r_15"/>
   <flow id="f_16_8" begin="745.00" end="775.00" probability="0.34366427313214354" route="r_8"/>
   <flow id="f_16_9" begin="745.00" end="775.00" probability="0.2307580175322692" route="r_9"/>
   <flow id="f_16_10" begin="745.00" end="775.00" probability="0.14751036820293884" route="r_10"/>
   <flow id="f_16_11" begin="745.00" end="775.00" probability="0.4502226142569918" route="r_11"/>
   <flow id="f_16_12" begin="745.00" end="775.00" probability="0.21515666153389404" route="r_12"/>
   <flow id="f_16_13" begin="745.00" end="775.00" probability="0.32027646720808284" route="r_13"/>
   <flow id="f_16_14" begin="745.00" end="775.00" probability="0.2153554256394375" route="r_14"/>
   <flow id="f_16_15" begin="745.00" end="775.00" probability="0.2843629261826565" route="r_15"/>
</routes>