<configuration>

 <input>
	 <net-file value="project_static.net.xml"/>
	 <route-files value="project_5.rou.xml"/>
 </input>
 <report>
	 <verbose value="true"/>
	 <no-step-log value="true"/>
 </report>
 <output>
        <summary-output value="control_summaries\summary_project_static.xml"/>
		<tripinfo-output value="control_summaries\tripinfos_project_static.xml"/>
    </output>

</configuration>