<routes>
            <vType accel="1.0" decel="4.5" id="standard_car" length="5.0" minGap="2.5" maxSpeed="25" sigma="0.5" />

            <route id="W_N" edges="1i 4o"/>
            <route id="W_E" edges="1i 2o"/>
            <route id="W_S" edges="1i 3o"/>
            <route id="N_W" edges="4i 1o"/>
            <route id="N_E" edges="4i 2o"/>
            <route id="N_S" edges="4i 3o"/>
            <route id="E_W" edges="2i 1o"/>
            <route id="E_N" edges="2i 4o"/>
            <route id="E_S" edges="2i 3o"/>
            <route id="S_W" edges="3i 1o"/>
            <route id="S_N" edges="3i 4o"/>
            <route id="S_E" edges="3i 2o"/>
    <vehicle id="S_E_0" type="standard_car" route="S_E" depart="-0.0" departLane="random" departSpeed="10" />
    <vehicle id="W_N_1" type="standard_car" route="W_N" depart="-0.0" departLane="random" departSpeed="10" />
    <vehicle id="N_W_2" type="standard_car" route="N_W" depart="-0.0" departLane="random" departSpeed="10" />
    <vehicle id="S_E_3" type="standard_car" route="S_E" depart="-0.0" departLane="random" departSpeed="10" />
    <vehicle id="E_W_4" type="standard_car" route="E_W" depart="-0.0" departLane="random" departSpeed="10" />
    <vehicle id="N_E_5" type="standard_car" route="N_E" depart="-0.0" departLane="random" departSpeed="10" />
    <vehicle id="S_E_6" type="standard_car" route="S_E" depart="-0.0" departLane="random" departSpeed="10" />
    <vehicle id="S_E_7" type="standard_car" route="S_E" depart="-0.0" departLane="random" departSpeed="10" />
    <vehicle id="N_W_8" type="standard_car" route="N_W" depart="-0.0" departLane="random" departSpeed="10" />
    <vehicle id="N_W_9" type="standard_car" route="N_W" depart="-0.0" departLane="random" departSpeed="10" />
    <vehicle id="E_S_10" type="standard_car" route="E_S" depart="-0.0" departLane="random" departSpeed="10" />
    <vehicle id="E_S_11" type="standard_car" route="E_S" depart="-0.0" departLane="random" departSpeed="10" />
    <vehicle id="W_S_12" type="standard_car" route="W_S" depart="-0.0" departLane="random" departSpeed="10" />
    <vehicle id="N_E_13" type="standard_car" route="N_E" depart="-0.0" departLane="random" departSpeed="10" />
    <vehicle id="S_W_14" type="standard_car" route="S_W" depart="-0.0" departLane="random" departSpeed="10" />
    <vehicle id="E_N_15" type="standard_car" route="E_S" depart="-0.0" departLane="random" departSpeed="10" />
    <vehicle id="E_N_16" type="standard_car" route="E_S" depart="-0.0" departLane="random" departSpeed="10" />
    <vehicle id="E_S_17" type="standard_car" route="E_S" depart="-0.0" departLane="random" departSpeed="10" />
    <vehicle id="N_S_18" type="standard_car" route="N_S" depart="-0.0" departLane="random" departSpeed="10" />
    <vehicle id="S_E_19" type="standard_car" route="S_E" depart="-0.0" departLane="random" departSpeed="10" />
    <vehicle id="N_E_20" type="standard_car" route="N_E" depart="-0.0" departLane="random" departSpeed="10" />
    <vehicle id="W_S_21" type="standard_car" route="W_S" depart="-0.0" departLane="random" departSpeed="10" />
    <vehicle id="S_E_22" type="standard_car" route="S_E" depart="-0.0" departLane="random" departSpeed="10" />
    <vehicle id="N_W_23" type="standard_car" route="N_W" depart="-0.0" departLane="random" departSpeed="10" />
    <vehicle id="S_W_24" type="standard_car" route="S_W" depart="-0.0" departLane="random" departSpeed="10" />
    <vehicle id="N_E_25" type="standard_car" route="N_E" depart="-0.0" departLane="random" departSpeed="10" />
    <vehicle id="N_W_26" type="standard_car" route="N_W" depart="-0.0" departLane="random" departSpeed="10" />
    <vehicle id="N_W_27" type="standard_car" route="N_W" depart="-0.0" departLane="random" departSpeed="10" />
    <vehicle id="N_E_28" type="standard_car" route="N_E" depart="-0.0" departLane="random" departSpeed="10" />
    <vehicle id="S_E_29" type="standard_car" route="S_E" depart="-0.0" departLane="random" departSpeed="10" />
    <vehicle id="N_W_30" type="standard_car" route="N_W" depart="-0.0" departLane="random" departSpeed="10" />
    <vehicle id="N_S_31" type="standard_car" route="N_S" depart="-0.0" departLane="random" departSpeed="10" />
    <vehicle id="S_W_32" type="standard_car" route="S_W" depart="-0.0" departLane="random" departSpeed="10" />
    <vehicle id="E_N_33" type="standard_car" route="E_S" depart="-0.0" departLane="random" departSpeed="10" />
    <vehicle id="S_E_34" type="standard_car" route="S_E" depart="-0.0" departLane="random" departSpeed="10" />
    <vehicle id="N_S_35" type="standard_car" route="N_S" depart="-0.0" departLane="random" departSpeed="10" />
    <vehicle id="W_E_36" type="standard_car" route="W_E" depart="-0.0" departLane="random" departSpeed="10" />
    <vehicle id="N_W_37" type="standard_car" route="N_W" depart="-0.0" departLane="random" departSpeed="10" />
    <vehicle id="S_E_38" type="standard_car" route="S_E" depart="-0.0" departLane="random" departSpeed="10" />
    <vehicle id="S_N_39" type="standard_car" route="S_N" depart="-0.0" departLane="random" departSpeed="10" />
    <vehicle id="E_W_40" type="standard_car" route="E_W" depart="-0.0" departLane="random" departSpeed="10" />
    <vehicle id="S_E_41" type="standard_car" route="S_E" depart="-0.0" departLane="random" departSpeed="10" />
    <vehicle id="S_N_42" type="standard_car" route="S_N" depart="-0.0" departLane="random" departSpeed="10" />
    <vehicle id="E_N_43" type="standard_car" route="E_S" depart="-0.0" departLane="random" departSpeed="10" />
    <vehicle id="S_E_44" type="standard_car" route="S_E" depart="-0.0" departLane="random" departSpeed="10" />
    <vehicle id="N_W_45" type="standard_car" route="N_W" depart="-0.0" departLane="random" departSpeed="10" />
    <vehicle id="S_W_46" type="standard_car" route="S_W" depart="-0.0" departLane="random" departSpeed="10" />
    <vehicle id="N_W_47" type="standard_car" route="N_W" depart="-0.0" departLane="random" departSpeed="10" />
    <vehicle id="N_W_48" type="standard_car" route="N_W" depart="-0.0" departLane="random" departSpeed="10" />
    <vehicle id="S_W_49" type="standard_car" route="S_W" depart="-0.0" departLane="random" departSpeed="10" />
    <vehicle id="N_W_50" type="standard_car" route="N_W" depart="-0.0" departLane="random" departSpeed="10" />
    <vehicle id="N_E_51" type="standard_car" route="N_E" depart="-0.0" departLane="random" departSpeed="10" />
    <vehicle id="S_E_52" type="standard_car" route="S_E" depart="-0.0" departLane="random" departSpeed="10" />
    <vehicle id="S_W_53" type="standard_car" route="S_W" depart="-0.0" departLane="random" departSpeed="10" />
    <vehicle id="N_W_54" type="standard_car" route="N_W" depart="-0.0" departLane="random" departSpeed="10" />
    <vehicle id="S_N_55" type="standard_car" route="S_N" depart="-0.0" departLane="random" departSpeed="10" />
    <vehicle id="N_E_56" type="standard_car" route="N_E" depart="-0.0" departLane="random" departSpeed="10" />
    <vehicle id="N_E_57" type="standard_car" route="N_E" depart="-0.0" departLane="random" departSpeed="10" />
    <vehicle id="S_W_58" type="standard_car" route="S_W" depart="-0.0" departLane="random" departSpeed="10" />
    <vehicle id="S_W_59" type="standard_car" route="S_W" depart="-0.0" departLane="random" departSpeed="10" />
    <vehicle id="S_E_60" type="standard_car" route="S_E" depart="-0.0" departLane="random" departSpeed="10" />
    <vehicle id="N_S_61" type="standard_car" route="N_S" depart="-0.0" departLane="random" departSpeed="10" />
    <vehicle id="W_S_62" type="standard_car" route="W_S" depart="-0.0" departLane="random" departSpeed="10" />
    <vehicle id="S_W_63" type="standard_car" route="S_W" depart="-0.0" departLane="random" departSpeed="10" />
    <vehicle id="S_W_64" type="standard_car" route="S_W" depart="-0.0" departLane="random" departSpeed="10" />
    <vehicle id="N_E_65" type="standard_car" route="N_E" depart="-0.0" departLane="random" departSpeed="10" />
    <vehicle id="S_W_66" type="standard_car" route="S_W" depart="-0.0" departLane="random" departSpeed="10" />
    <vehicle id="N_E_67" type="standard_car" route="N_E" depart="-0.0" departLane="random" departSpeed="10" />
    <vehicle id="E_S_68" type="standard_car" route="E_S" depart="-0.0" departLane="random" departSpeed="10" />
    <vehicle id="E_N_69" type="standard_car" route="E_S" depart="-0.0" departLane="random" departSpeed="10" />
    <vehicle id="S_W_70" type="standard_car" route="S_W" depart="-0.0" departLane="random" departSpeed="10" />
    <vehicle id="S_W_71" type="standard_car" route="S_W" depart="-0.0" departLane="random" departSpeed="10" />
    <vehicle id="S_E_72" type="standard_car" route="S_E" depart="-0.0" departLane="random" departSpeed="10" />
    <vehicle id="S_N_73" type="standard_car" route="S_N" depart="-0.0" departLane="random" departSpeed="10" />
    <vehicle id="S_W_74" type="standard_car" route="S_W" depart="-0.0" departLane="random" departSpeed="10" />
    <vehicle id="S_W_75" type="standard_car" route="S_W" depart="-0.0" departLane="random" departSpeed="10" />
    <vehicle id="S_E_76" type="standard_car" route="S_E" depart="-0.0" departLane="random" departSpeed="10" />
    <vehicle id="N_W_77" type="standard_car" route="N_W" depart="-0.0" departLane="random" departSpeed="10" />
    <vehicle id="N_E_78" type="standard_car" route="N_E" depart="-0.0" departLane="random" departSpeed="10" />
    <vehicle id="S_E_79" type="standard_car" route="S_E" depart="-0.0" departLane="random" departSpeed="10" />
    <vehicle id="S_N_80" type="standard_car" route="S_N" depart="-0.0" departLane="random" departSpeed="10" />
    <vehicle id="N_W_81" type="standard_car" route="N_W" depart="-0.0" departLane="random" departSpeed="10" />
    <vehicle id="N_E_82" type="standard_car" route="N_E" depart="514.0" departLane="random" departSpeed="10" />
    <vehicle id="S_E_83" type="standard_car" route="S_E" depart="514.0" departLane="random" departSpeed="10" />
    <vehicle id="N_W_84" type="standard_car" route="N_W" depart="514.0" departLane="random" departSpeed="10" />
    <vehicle id="N_W_85" type="standard_car" route="N_W" depart="514.0" departLane="random" departSpeed="10" />
    <vehicle id="N_W_86" type="standard_car" route="N_W" depart="514.0" departLane="random" departSpeed="10" />
    <vehicle id="N_W_87" type="standard_car" route="N_W" depart="514.0" departLane="random" departSpeed="10" />
    <vehicle id="S_W_88" type="standard_car" route="S_W" depart="514.0" departLane="random" departSpeed="10" />
    <vehicle id="N_E_89" type="standard_car" route="N_E" depart="514.0" departLane="random" departSpeed="10" />
    <vehicle id="S_E_90" type="standard_car" route="S_E" depart="514.0" departLane="random" departSpeed="10" />
    <vehicle id="S_E_91" type="standard_car" route="S_E" depart="514.0" departLane="random" departSpeed="10" />
    <vehicle id="S_E_92" type="standard_car" route="S_E" depart="514.0" departLane="random" departSpeed="10" />
    <vehicle id="N_W_93" type="standard_car" route="N_W" depart="514.0" departLane="random" departSpeed="10" />
    <vehicle id="W_E_94" type="standard_car" route="W_E" depart="514.0" departLane="random" departSpeed="10" />
    <vehicle id="N_E_95" type="standard_car" route="N_E" depart="514.0" departLane="random" departSpeed="10" />
    <vehicle id="S_N_96" type="standard_car" route="S_N" depart="514.0" departLane="random" departSpeed="10" />
    <vehicle id="N_E_97" type="standard_car" route="N_E" depart="514.0" departLane="random" departSpeed="10" />
    <vehicle id="N_E_98" type="standard_car" route="N_E" depart="514.0" departLane="random" departSpeed="10" />
    <vehicle id="W_S_99" type="standard_car" route="W_S" depart="514.0" departLane="random" departSpeed="10" />
    <vehicle id="N_W_100" type="standard_car" route="N_W" depart="514.0" departLane="random" departSpeed="10" />
    <vehicle id="S_W_101" type="standard_car" route="S_W" depart="514.0" departLane="random" departSpeed="10" />
    <vehicle id="S_E_102" type="standard_car" route="S_E" depart="514.0" departLane="random" departSpeed="10" />
    <vehicle id="N_W_103" type="standard_car" route="N_W" depart="514.0" departLane="random" departSpeed="10" />
    <vehicle id="S_E_104" type="standard_car" route="S_E" depart="514.0" departLane="random" departSpeed="10" />
    <vehicle id="E_S_105" type="standard_car" route="E_S" depart="514.0" departLane="random" departSpeed="10" />
    <vehicle id="E_W_106" type="standard_car" route="E_W" depart="514.0" departLane="random" departSpeed="10" />
    <vehicle id="S_E_107" type="standard_car" route="S_E" depart="514.0" departLane="random" departSpeed="10" />
    <vehicle id="N_E_108" type="standard_car" route="N_E" depart="514.0" departLane="random" departSpeed="10" />
    <vehicle id="N_W_109" type="standard_car" route="N_W" depart="514.0" departLane="random" departSpeed="10" />
    <vehicle id="N_W_110" type="standard_car" route="N_W" depart="514.0" departLane="random" departSpeed="10" />
    <vehicle id="N_E_111" type="standard_car" route="N_E" depart="514.0" departLane="random" departSpeed="10" />
    <vehicle id="S_E_112" type="standard_car" route="S_E" depart="514.0" departLane="random" departSpeed="10" />
    <vehicle id="S_W_113" type="standard_car" route="S_W" depart="514.0" departLane="random" departSpeed="10" />
    <vehicle id="S_N_114" type="standard_car" route="S_N" depart="514.0" departLane="random" departSpeed="10" />
    <vehicle id="S_W_115" type="standard_car" route="S_W" depart="514.0" departLane="random" departSpeed="10" />
    <vehicle id="S_W_116" type="standard_car" route="S_W" depart="514.0" departLane="random" departSpeed="10" />
    <vehicle id="N_E_117" type="standard_car" route="N_E" depart="514.0" departLane="random" departSpeed="10" />
    <vehicle id="N_E_118" type="standard_car" route="N_E" depart="514.0" departLane="random" departSpeed="10" />
    <vehicle id="S_E_119" type="standard_car" route="S_E" depart="514.0" departLane="random" departSpeed="10" />
    <vehicle id="S_E_120" type="standard_car" route="S_E" depart="514.0" departLane="random" departSpeed="10" />
    <vehicle id="W_S_121" type="standard_car" route="W_S" depart="514.0" departLane="random" departSpeed="10" />
    <vehicle id="N_E_122" type="standard_car" route="N_E" depart="514.0" departLane="random" departSpeed="10" />
    <vehicle id="N_W_123" type="standard_car" route="N_W" depart="514.0" departLane="random" departSpeed="10" />
    <vehicle id="N_E_124" type="standard_car" route="N_E" depart="514.0" departLane="random" departSpeed="10" />
    <vehicle id="W_N_125" type="standard_car" route="W_N" depart="514.0" departLane="random" departSpeed="10" />
    <vehicle id="S_E_126" type="standard_car" route="S_E" depart="514.0" departLane="random" departSpeed="10" />
    <vehicle id="N_E_127" type="standard_car" route="N_E" depart="514.0" departLane="random" departSpeed="10" />
    <vehicle id="S_E_128" type="standard_car" route="S_E" depart="514.0" departLane="random" departSpeed="10" />
    <vehicle id="N_W_129" type="standard_car" route="N_W" depart="514.0" departLane="random" departSpeed="10" />
    <vehicle id="S_E_130" type="standard_car" route="S_E" depart="514.0" departLane="random" departSpeed="10" />
    <vehicle id="N_E_131" type="standard_car" route="N_E" depart="514.0" departLane="random" departSpeed="10" />
    <vehicle id="N_W_132" type="standard_car" route="N_W" depart="514.0" departLane="random" departSpeed="10" />
    <vehicle id="S_E_133" type="standard_car" route="S_E" depart="514.0" departLane="random" departSpeed="10" />
    <vehicle id="S_W_134" type="standard_car" route="S_W" depart="514.0" departLane="random" departSpeed="10" />
    <vehicle id="S_E_135" type="standard_car" route="S_E" depart="514.0" departLane="random" departSpeed="10" />
    <vehicle id="S_W_136" type="standard_car" route="S_W" depart="514.0" departLane="random" departSpeed="10" />
    <vehicle id="S_E_137" type="standard_car" route="S_E" depart="514.0" departLane="random" departSpeed="10" />
    <vehicle id="S_E_138" type="standard_car" route="S_E" depart="514.0" departLane="random" departSpeed="10" />
    <vehicle id="W_E_139" type="standard_car" route="W_E" depart="514.0" departLane="random" departSpeed="10" />
    <vehicle id="E_N_140" type="standard_car" route="E_S" depart="514.0" departLane="random" departSpeed="10" />
    <vehicle id="N_W_141" type="standard_car" route="N_W" depart="514.0" departLane="random" departSpeed="10" />
    <vehicle id="S_E_142" type="standard_car" route="S_E" depart="514.0" departLane="random" departSpeed="10" />
    <vehicle id="S_E_143" type="standard_car" route="S_E" depart="514.0" departLane="random" departSpeed="10" />
    <vehicle id="W_N_144" type="standard_car" route="W_N" depart="514.0" departLane="random" departSpeed="10" />
    <vehicle id="S_W_145" type="standard_car" route="S_W" depart="514.0" departLane="random" departSpeed="10" />
    <vehicle id="S_W_146" type="standard_car" route="S_W" depart="514.0" departLane="random" departSpeed="10" />
    <vehicle id="S_W_147" type="standard_car" route="S_W" depart="514.0" departLane="random" departSpeed="10" />
    <vehicle id="N_E_148" type="standard_car" route="N_E" depart="514.0" departLane="random" departSpeed="10" />
    <vehicle id="S_W_149" type="standard_car" route="S_W" depart="514.0" departLane="random" departSpeed="10" />
    <vehicle id="N_W_150" type="standard_car" route="N_W" depart="514.0" departLane="random" departSpeed="10" />
    <vehicle id="N_E_151" type="standard_car" route="N_E" depart="514.0" departLane="random" departSpeed="10" />
    <vehicle id="W_N_152" type="standard_car" route="W_N" depart="514.0" departLane="random" departSpeed="10" />
    <vehicle id="S_W_153" type="standard_car" route="S_W" depart="514.0" departLane="random" departSpeed="10" />
    <vehicle id="S_E_154" type="standard_car" route="S_E" depart="514.0" departLane="random" departSpeed="10" />
    <vehicle id="S_W_155" type="standard_car" route="S_W" depart="514.0" departLane="random" departSpeed="10" />
    <vehicle id="E_N_156" type="standard_car" route="E_S" depart="514.0" departLane="random" departSpeed="10" />
    <vehicle id="S_E_157" type="standard_car" route="S_E" depart="514.0" departLane="random" departSpeed="10" />
    <vehicle id="N_E_158" type="standard_car" route="N_E" depart="514.0" departLane="random" departSpeed="10" />
    <vehicle id="N_E_159" type="standard_car" route="N_E" depart="514.0" departLane="random" departSpeed="10" />
    <vehicle id="N_W_160" type="standard_car" route="N_W" depart="514.0" departLane="random" departSpeed="10" />
    <vehicle id="S_W_161" type="standard_car" route="S_W" depart="514.0" departLane="random" departSpeed="10" />
    <vehicle id="N_W_162" type="standard_car" route="N_W" depart="514.0" departLane="random" departSpeed="10" />
    <vehicle id="N_W_163" type="standard_car" route="N_W" depart="514.0" departLane="random" departSpeed="10" />
    <vehicle id="S_N_164" type="standard_car" route="S_N" depart="514.0" departLane="random" departSpeed="10" />
    <vehicle id="N_W_165" type="standard_car" route="N_W" depart="514.0" departLane="random" departSpeed="10" />
    <vehicle id="N_E_166" type="standard_car" route="N_E" depart="514.0" departLane="random" departSpeed="10" />
    <vehicle id="N_E_167" type="standard_car" route="N_E" depart="514.0" departLane="random" departSpeed="10" />
    <vehicle id="S_E_168" type="standard_car" route="S_E" depart="514.0" departLane="random" departSpeed="10" />
    <vehicle id="W_S_169" type="standard_car" route="W_S" depart="514.0" departLane="random" departSpeed="10" />
    <vehicle id="E_N_170" type="standard_car" route="E_S" depart="514.0" departLane="random" departSpeed="10" />
    <vehicle id="S_E_171" type="standard_car" route="S_E" depart="514.0" departLane="random" departSpeed="10" />
    <vehicle id="S_W_172" type="standard_car" route="S_W" depart="514.0" departLane="random" departSpeed="10" />
    <vehicle id="E_W_173" type="standard_car" route="E_W" depart="514.0" departLane="random" departSpeed="10" />
    <vehicle id="N_E_174" type="standard_car" route="N_E" depart="514.0" departLane="random" departSpeed="10" />
    <vehicle id="E_W_175" type="standard_car" route="E_W" depart="514.0" departLane="random" departSpeed="10" />
    <vehicle id="S_W_176" type="standard_car" route="S_W" depart="514.0" departLane="random" departSpeed="10" />
    <vehicle id="N_E_177" type="standard_car" route="N_E" depart="514.0" departLane="random" departSpeed="10" />
    <vehicle id="N_E_178" type="standard_car" route="N_E" depart="514.0" departLane="random" departSpeed="10" />
    <vehicle id="S_E_179" type="standard_car" route="S_E" depart="514.0" departLane="random" departSpeed="10" />
    <vehicle id="S_E_180" type="standard_car" route="S_E" depart="514.0" departLane="random" departSpeed="10" />
    <vehicle id="E_S_181" type="standard_car" route="E_S" depart="514.0" departLane="random" departSpeed="10" />
    <vehicle id="S_E_182" type="standard_car" route="S_E" depart="514.0" departLane="random" departSpeed="10" />
    <vehicle id="S_W_183" type="standard_car" route="S_W" depart="514.0" departLane="random" departSpeed="10" />
    <vehicle id="N_E_184" type="standard_car" route="N_E" depart="514.0" departLane="random" departSpeed="10" />
    <vehicle id="E_W_185" type="standard_car" route="E_W" depart="514.0" departLane="random" departSpeed="10" />
    <vehicle id="S_W_186" type="standard_car" route="S_W" depart="514.0" departLane="random" departSpeed="10" />
    <vehicle id="W_N_187" type="standard_car" route="W_N" depart="514.0" departLane="random" departSpeed="10" />
    <vehicle id="S_E_188" type="standard_car" route="S_E" depart="514.0" departLane="random" departSpeed="10" />
    <vehicle id="N_E_189" type="standard_car" route="N_E" depart="514.0" departLane="random" departSpeed="10" />
    <vehicle id="S_E_190" type="standard_car" route="S_E" depart="514.0" departLane="random" departSpeed="10" />
    <vehicle id="W_N_191" type="standard_car" route="W_N" depart="514.0" departLane="random" departSpeed="10" />
    <vehicle id="S_E_192" type="standard_car" route="S_E" depart="514.0" departLane="random" departSpeed="10" />
    <vehicle id="N_W_193" type="standard_car" route="N_W" depart="514.0" departLane="random" departSpeed="10" />
    <vehicle id="S_E_194" type="standard_car" route="S_E" depart="514.0" departLane="random" departSpeed="10" />
    <vehicle id="N_S_195" type="standard_car" route="N_S" depart="514.0" departLane="random" departSpeed="10" />
    <vehicle id="N_E_196" type="standard_car" route="N_E" depart="514.0" departLane="random" departSpeed="10" />
    <vehicle id="N_E_197" type="standard_car" route="N_E" depart="514.0" departLane="random" departSpeed="10" />
    <vehicle id="N_S_198" type="standard_car" route="N_S" depart="514.0" departLane="random" departSpeed="10" />
    <vehicle id="N_W_199" type="standard_car" route="N_W" depart="1029.0" departLane="random" departSpeed="10" />
    <vehicle id="S_W_200" type="standard_car" route="S_W" depart="1029.0" departLane="random" departSpeed="10" />
    <vehicle id="S_W_201" type="standard_car" route="S_W" depart="1029.0" departLane="random" departSpeed="10" />
    <vehicle id="N_W_202" type="standard_car" route="N_W" depart="1029.0" departLane="random" departSpeed="10" />
    <vehicle id="E_W_203" type="standard_car" route="E_W" depart="1029.0" departLane="random" departSpeed="10" />
    <vehicle id="S_E_204" type="standard_car" route="S_E" depart="1029.0" departLane="random" departSpeed="10" />
    <vehicle id="N_S_205" type="standard_car" route="N_S" depart="1029.0" departLane="random" departSpeed="10" />
    <vehicle id="N_E_206" type="standard_car" route="N_E" depart="1029.0" departLane="random" departSpeed="10" />
    <vehicle id="N_E_207" type="standard_car" route="N_E" depart="1029.0" departLane="random" departSpeed="10" />
    <vehicle id="N_S_208" type="standard_car" route="N_S" depart="1029.0" departLane="random" departSpeed="10" />
    <vehicle id="S_W_209" type="standard_car" route="S_W" depart="1029.0" departLane="random" departSpeed="10" />
    <vehicle id="N_E_210" type="standard_car" route="N_E" depart="1029.0" departLane="random" departSpeed="10" />
    <vehicle id="S_W_211" type="standard_car" route="S_W" depart="1029.0" departLane="random" departSpeed="10" />
    <vehicle id="S_E_212" type="standard_car" route="S_E" depart="1029.0" departLane="random" departSpeed="10" />
    <vehicle id="S_E_213" type="standard_car" route="S_E" depart="1029.0" departLane="random" departSpeed="10" />
    <vehicle id="N_E_214" type="standard_car" route="N_E" depart="1029.0" departLane="random" departSpeed="10" />
    <vehicle id="N_E_215" type="standard_car" route="N_E" depart="1029.0" departLane="random" departSpeed="10" />
    <vehicle id="W_E_216" type="standard_car" route="W_E" depart="1029.0" departLane="random" departSpeed="10" />
    <vehicle id="E_W_217" type="standard_car" route="E_W" depart="1029.0" departLane="random" departSpeed="10" />
    <vehicle id="S_E_218" type="standard_car" route="S_E" depart="1029.0" departLane="random" departSpeed="10" />
    <vehicle id="S_E_219" type="standard_car" route="S_E" depart="1029.0" departLane="random" departSpeed="10" />
    <vehicle id="S_E_220" type="standard_car" route="S_E" depart="1029.0" departLane="random" departSpeed="10" />
    <vehicle id="N_S_221" type="standard_car" route="N_S" depart="1029.0" departLane="random" departSpeed="10" />
    <vehicle id="N_E_222" type="standard_car" route="N_E" depart="1029.0" departLane="random" departSpeed="10" />
    <vehicle id="S_W_223" type="standard_car" route="S_W" depart="1029.0" departLane="random" departSpeed="10" />
    <vehicle id="N_E_224" type="standard_car" route="N_E" depart="1029.0" departLane="random" departSpeed="10" />
    <vehicle id="E_N_225" type="standard_car" route="E_S" depart="1029.0" departLane="random" departSpeed="10" />
    <vehicle id="N_E_226" type="standard_car" route="N_E" depart="1029.0" departLane="random" departSpeed="10" />
    <vehicle id="S_E_227" type="standard_car" route="S_E" depart="1029.0" departLane="random" departSpeed="10" />
    <vehicle id="N_E_228" type="standard_car" route="N_E" depart="1029.0" departLane="random" departSpeed="10" />
    <vehicle id="S_E_229" type="standard_car" route="S_E" depart="1029.0" departLane="random" departSpeed="10" />
    <vehicle id="N_S_230" type="standard_car" route="N_S" depart="1029.0" departLane="random" departSpeed="10" />
    <vehicle id="W_S_231" type="standard_car" route="W_S" depart="1029.0" departLane="random" departSpeed="10" />
    <vehicle id="S_N_232" type="standard_car" route="S_N" depart="1029.0" departLane="random" departSpeed="10" />
    <vehicle id="W_N_233" type="standard_car" route="W_N" depart="1029.0" departLane="random" departSpeed="10" />
    <vehicle id="W_E_234" type="standard_car" route="W_E" depart="1029.0" departLane="random" departSpeed="10" />
    <vehicle id="S_N_235" type="standard_car" route="S_N" depart="1029.0" departLane="random" departSpeed="10" />
    <vehicle id="S_W_236" type="standard_car" route="S_W" depart="1029.0" departLane="random" departSpeed="10" />
    <vehicle id="S_E_237" type="standard_car" route="S_E" depart="1029.0" departLane="random" departSpeed="10" />
    <vehicle id="N_W_238" type="standard_car" route="N_W" depart="1029.0" departLane="random" departSpeed="10" />
    <vehicle id="W_S_239" type="standard_car" route="W_S" depart="1029.0" departLane="random" departSpeed="10" />
    <vehicle id="N_E_240" type="standard_car" route="N_E" depart="1029.0" departLane="random" departSpeed="10" />
    <vehicle id="N_W_241" type="standard_car" route="N_W" depart="1029.0" departLane="random" departSpeed="10" />
    <vehicle id="S_W_242" type="standard_car" route="S_W" depart="1029.0" departLane="random" departSpeed="10" />
    <vehicle id="N_E_243" type="standard_car" route="N_E" depart="1029.0" departLane="random" departSpeed="10" />
    <vehicle id="N_S_244" type="standard_car" route="N_S" depart="1029.0" departLane="random" departSpeed="10" />
    <vehicle id="N_W_245" type="standard_car" route="N_W" depart="1029.0" departLane="random" departSpeed="10" />
    <vehicle id="N_E_246" type="standard_car" route="N_E" depart="1029.0" departLane="random" departSpeed="10" />
    <vehicle id="S_E_247" type="standard_car" route="S_E" depart="1029.0" departLane="random" departSpeed="10" />
    <vehicle id="N_W_248" type="standard_car" route="N_W" depart="1029.0" departLane="random" departSpeed="10" />
    <vehicle id="N_E_249" type="standard_car" route="N_E" depart="1029.0" departLane="random" departSpeed="10" />
    <vehicle id="N_E_250" type="standard_car" route="N_E" depart="1029.0" departLane="random" departSpeed="10" />
    <vehicle id="S_W_251" type="standard_car" route="S_W" depart="1029.0" departLane="random" departSpeed="10" />
    <vehicle id="E_N_252" type="standard_car" route="E_S" depart="1029.0" departLane="random" departSpeed="10" />
    <vehicle id="N_E_253" type="standard_car" route="N_E" depart="1029.0" departLane="random" departSpeed="10" />
    <vehicle id="N_S_254" type="standard_car" route="N_S" depart="1029.0" departLane="random" departSpeed="10" />
    <vehicle id="N_W_255" type="standard_car" route="N_W" depart="1029.0" departLane="random" departSpeed="10" />
    <vehicle id="N_W_256" type="standard_car" route="N_W" depart="1029.0" departLane="random" departSpeed="10" />
    <vehicle id="S_W_257" type="standard_car" route="S_W" depart="1029.0" departLane="random" departSpeed="10" />
    <vehicle id="S_E_258" type="standard_car" route="S_E" depart="1029.0" departLane="random" departSpeed="10" />
    <vehicle id="S_W_259" type="standard_car" route="S_W" depart="1029.0" departLane="random" departSpeed="10" />